data/nesta/api/nesta_case3375wp_mp__api.m
%%%%%%%%%%%%%%%%%%%%%%%%%%%%%%%%%%%%%%%%%%%%%%%%%%%%%%%%%%%%%%%%%%%%%%%%%%%
%%%%                                                                  %%%%%
%%%%      NICTA Energy System Test Case Archive (NESTA) - v0.1.5      %%%%%
%%%%            Optimal Power Flow - Active Power Increase            %%%%%
%%%%                       30 - October - 2014                        %%%%%
%%%%                                                                  %%%%%
%%%%%%%%%%%%%%%%%%%%%%%%%%%%%%%%%%%%%%%%%%%%%%%%%%%%%%%%%%%%%%%%%%%%%%%%%%%
function mpc = nesta_case3375wp_mp__api
mpc.version = '2';
mpc.baseMVA = 100.0;

%% area data
%	area	refbus
mpc.areas = [
	1	 1;
];

%% bus data
%	bus_i	type	Pd	Qd	Gs	Bs	area	Vm	Va	baseKV	zone	Vmax	Vmin
mpc.bus = [
	10000	 1	 0.00	 0.00	 0.0	 0.0	 0	     1.0469	   -10.7049	 400.0	 0	     1.0500	     0.9500;
	10001	 1	 0.00	 0.00	 0.0	 0.0	 0	     1.0484	   -15.0478	 400.0	 0	     1.0500	     0.9500;
	10002	 1	 0.00	 0.00	 0.0	 0.0	 0	     1.0725	   -16.9655	 220.0	 0	     1.1100	     0.9500;
	10003	 1	 0.00	 0.00	 0.0	 0.0	 0	     1.0453	   -17.9312	 400.0	 0	     1.0500	     0.9500;
	10004	 1	 0.00	 0.00	 0.0	 0.0	 0	     1.0440	   -13.9733	 400.0	 0	     1.0500	     0.9500;
	10005	 1	 0.00	 0.00	 0.0	 0.0	 0	     1.0444	   -16.4987	 400.0	 0	     1.0500	     0.9500;
	10006	 1	 0.00	 0.00	 0.0	 0.0	 0	     1.0408	    -9.9035	 400.0	 0	     1.0500	     0.9500;
	10007	 1	 0.00	 0.00	 0.0	 0.0	 0	     1.0732	   -15.9186	 220.0	 0	     1.1100	     0.9500;
	10008	 1	 0.00	 0.00	 0.0	 0.0	 0	     1.0707	   -18.0750	 220.0	 0	     1.1100	     0.9500;
	10009	 1	 0.00	 0.00	 0.0	 0.0	 0	     1.0444	   -17.2805	 400.0	 0	     1.0500	     0.9500;
	10010	 1	 0.00	 0.00	 0.0	 0.0	 0	     1.0491	   -12.0739	 400.0	 0	     1.0500	     0.9500;
	10011	 1	 0.00	 0.00	 0.0	 0.0	 0	     1.0447	   -18.5945	 400.0	 0	     1.0500	     0.9500;
	10012	 1	 0.00	 0.00	 0.0	 0.0	 0	     1.0447	   -18.5945	 400.0	 0	     1.0500	     0.9500;
	10013	 1	 0.00	 0.00	 0.0	 0.0	 0	     1.0456	   -12.1977	 400.0	 0	     1.0500	     0.9500;
	10014	 1	 0.00	 0.00	 0.0	 0.0	 0	     1.0458	   -12.2292	 400.0	 0	     1.0500	     0.9500;
	10015	 1	 0.00	 0.00	 0.0	 0.0	 0	     1.0447	   -18.1543	 400.0	 0	     1.0500	     0.9500;
	10016	 1	 0.00	 0.00	 0.0	 0.0	 0	     1.0458	   -12.1167	 400.0	 0	     1.0500	     0.9500;
	10017	 1	 0.00	 0.00	 0.0	 0.0	 0	     1.0457	   -12.1208	 400.0	 0	     1.0500	     0.9500;
	10018	 1	 0.00	 0.00	 0.0	 0.0	 0	     1.0457	   -12.1135	 400.0	 0	     1.0500	     0.9500;
	10019	 1	 0.00	 0.00	 0.0	 0.0	 0	     1.0458	   -12.2292	 400.0	 0	     1.0500	     0.9500;
	10020	 1	 0.00	 0.00	 0.0	 0.0	 0	     1.0500	   -14.0775	 400.0	 0	     1.0500	     0.9500;
	10021	 1	 0.00	 0.00	 0.0	 0.0	 0	     1.0763	   -16.6074	 220.0	 0	     1.1100	     0.9500;
	10022	 1	 0.00	 0.00	 0.0	 0.0	 0	     1.0748	   -17.0198	 220.0	 0	     1.1100	     0.9500;
	10023	 1	 0.00	 0.00	 0.0	 0.0	 0	     1.0458	   -11.7566	 400.0	 0	     1.0500	     0.9500;
	10024	 1	 0.00	 0.00	 0.0	 0.0	 0	     1.0456	   -11.8561	 400.0	 0	     1.0500	     0.9500;
	10025	 1	 0.00	 0.00	 0.0	 0.0	 0	     1.0457	   -11.8032	 400.0	 0	     1.0500	     0.9500;
	10026	 1	 0.00	 0.00	 0.0	 0.0	 0	     1.0414	    -8.0351	 400.0	 0	     1.0500	     0.9500;
	10027	 1	 0.00	 0.00	 0.0	 0.0	 0	     1.0418	    -7.7621	 400.0	 0	     1.0500	     0.9500;
	10028	 1	 0.00	 0.00	 0.0	 0.0	 0	     1.0419	    -7.5647	 400.0	 0	     1.0500	     0.9500;
	10029	 1	 0.00	 0.00	 0.0	 0.0	 0	     1.0491	   -11.5362	 400.0	 0	     1.0500	     0.9500;
	10030	 1	 0.00	 0.00	 0.0	 0.0	 0	     1.0491	   -11.5310	 400.0	 0	     1.0500	     0.9500;
	10031	 1	 0.00	 0.00	 0.0	 0.0	 0	     1.0868	   -11.5932	 220.0	 0	     1.1100	     0.9500;
	10032	 1	 0.00	 0.00	 0.0	 0.0	 0	     1.0414	    -8.0506	 400.0	 0	     1.0500	     0.9500;
	10033	 1	 0.00	 0.00	 0.0	 0.0	 0	     1.0414	    -8.0505	 400.0	 0	     1.0500	     0.9500;
	10034	 1	 0.00	 0.00	 0.0	 0.0	 0	     1.0426	   -14.1493	 400.0	 0	     1.0500	     0.9500;
	10035	 1	 0.00	 0.00	 0.0	 0.0	 0	     1.0725	   -12.3724	 220.0	 0	     1.1100	     0.9500;
	10036	 1	 0.00	 0.00	 0.0	 0.0	 0	     1.0726	   -12.3800	 220.0	 0	     1.1100	     0.9500;
	10037	 1	 0.00	 0.00	 0.0	 0.0	 0	     1.0414	    -8.1486	 400.0	 0	     1.0500	     0.9500;
	10038	 1	 0.00	 0.00	 0.0	 0.0	 0	     1.0414	    -8.1566	 400.0	 0	     1.0500	     0.9500;
	10039	 1	 0.00	 0.00	 0.0	 0.0	 0	     1.0419	    -8.2044	 400.0	 0	     1.0500	     0.9500;
	10040	 1	 0.00	 0.00	 0.0	 0.0	 0	     1.0451	   -12.9196	 400.0	 0	     1.0500	     0.9500;
	10041	 1	 0.00	 0.00	 0.0	 0.0	 0	     1.0492	   -11.6698	 400.0	 0	     1.0500	     0.9500;
	10042	 1	 0.00	 0.00	 0.0	 0.0	 0	     1.0449	   -18.8166	 400.0	 0	     1.0500	     0.9500;
	10043	 1	 0.00	 0.00	 0.0	 0.0	 0	     1.0659	   -14.1772	 220.0	 0	     1.1100	     0.9500;
	10044	 1	 0.00	 0.00	 0.0	 0.0	 0	     1.0731	   -13.3306	 220.0	 0	     1.1100	     0.9500;
	10045	 1	 0.00	 0.00	 0.0	 0.0	 0	     1.0674	   -18.9363	 220.0	 0	     1.1100	     0.9500;
	10046	 1	 0.00	 0.00	 0.0	 0.0	 0	     1.0748	   -17.0193	 220.0	 0	     1.1100	     0.9500;
	10047	 1	 0.00	 0.00	 0.0	 0.0	 0	     1.0435	   -19.7290	 400.0	 0	     1.0500	     0.9500;
	10048	 1	 0.00	 0.00	 0.0	 0.0	 0	     1.0459	   -11.2079	 400.0	 0	     1.0500	     0.9500;
	10049	 1	 0.00	 0.00	 0.0	 0.0	 0	     1.0488	   -11.7187	 400.0	 0	     1.0500	     0.9500;
	10050	 1	 0.00	 0.00	 0.0	 0.0	 0	     1.0492	   -11.6698	 400.0	 0	     1.0500	     0.9500;
	10051	 1	 0.00	 0.00	 0.0	 0.0	 0	     1.0643	   -18.6481	 220.0	 0	     1.1100	     0.9500;
	10052	 1	 0.00	 0.00	 0.0	 0.0	 0	     1.0428	   -16.3952	 400.0	 0	     1.0500	     0.9500;
	10053	 1	 0.00	 0.00	 0.0	 0.0	 0	     1.0885	   -11.0346	 220.0	 0	     1.1100	     0.9500;
	10054	 1	 0.00	 0.00	 0.0	 0.0	 0	     1.0885	   -11.0346	 220.0	 0	     1.1100	     0.9500;
	10055	 1	 0.00	 0.00	 0.0	 0.0	 0	     1.0802	   -14.9384	 220.0	 0	     1.1100	     0.9500;
	10056	 1	 0.00	 0.00	 0.0	 0.0	 0	     1.0418	   -10.1534	 400.0	 0	     1.0500	     0.9500;
	10057	 1	 0.00	 0.00	 0.0	 0.0	 0	     1.0397	    -9.1454	 400.0	 0	     1.0500	     0.9500;
	10058	 1	 0.00	 0.00	 0.0	 0.0	 0	     1.0598	   -16.7069	 220.0	 0	     1.1100	     0.9500;
	10059	 1	 0.00	 0.00	 0.0	 0.0	 0	     1.0500	   -15.8165	 400.0	 0	     1.0500	     0.9500;
	10060	 1	 0.00	 0.00	 0.0	 0.0	 0	     1.0414	    -8.1526	 400.0	 0	     1.0500	     0.9500;
	10061	 1	 0.00	 0.00	 0.0	 0.0	 0	     1.0418	   -10.1534	 400.0	 0	     1.0500	     0.9500;
	10062	 1	 0.00	 0.00	 0.0	 0.0	 0	     1.0430	   -15.7540	 400.0	 0	     1.0500	     0.9500;
	10063	 1	 0.00	 0.00	 0.0	 0.0	 0	     1.0458	   -12.2292	 400.0	 0	     1.0500	     0.9500;
	10064	 1	 0.00	 0.00	 0.0	 0.0	 0	     1.0657	   -16.2821	 220.0	 0	     1.1100	     0.9500;
	10065	 1	 0.00	 0.00	 0.0	 0.0	 0	     1.0467	   -13.5330	 400.0	 0	     1.0500	     0.9500;
	10066	 1	 0.00	 0.00	 0.0	 0.0	 0	     1.0488	   -12.2138	 400.0	 0	     1.0500	     0.9500;
	10067	 1	 0.00	 0.00	 0.0	 0.0	 0	     1.0675	   -15.3697	 220.0	 0	     1.1100	     0.9500;
	10068	 1	 0.00	 0.00	 0.0	 0.0	 0	     1.0490	   -13.1210	 400.0	 0	     1.0500	     0.9500;
	10069	 1	 0.00	 0.00	 0.0	 0.0	 0	     1.0664	   -19.2243	 220.0	 0	     1.1100	     0.9500;
	10070	 1	 0.00	 0.00	 0.0	 0.0	 0	     1.0447	   -18.5943	 400.0	 0	     1.0500	     0.9500;
	10071	 2	 18.44	 8.00	 0.0	 0.0	 0	     1.0762	   -15.2896	 220.0	 0	     1.1100	     0.9500;
	10072	 1	 0.00	 0.00	 0.0	 0.0	 0	     1.0860	   -11.7689	 220.0	 0	     1.1100	     0.9500;
	10073	 1	 0.00	 0.00	 0.0	 0.0	 1	     1.0747	   -13.3669	 220.0	 0	     1.1100	     0.9500;
	10074	 1	 0.00	 0.00	 0.0	 0.0	 0	     1.0738	   -13.3428	 220.0	 0	     1.1100	     0.9500;
	10075	 1	 0.00	 0.00	 0.0	 0.0	 0	     1.0726	   -14.1716	 220.0	 0	     1.1100	     0.9500;
	10076	 1	 0.00	 0.00	 0.0	 0.0	 0	     1.0456	   -11.8560	 400.0	 0	     1.0500	     0.9500;
	10077	 1	 0.00	 0.00	 0.0	 0.0	 0	     1.0456	   -11.8560	 400.0	 0	     1.0500	     0.9500;
	10078	 1	 305.50	 -14.00	 0.0	 0.0	 0	     1.0346	    -8.2158	 400.0	 0	     1.0500	     0.9500;
	10079	 2	 -1529.60	 4542.90	 0.0	 0.0	 0	     1.0132	    -0.0517	 400.0	 0	     1.0500	     0.9500;
	10080	 2	 -159.10	 -181.00	 0.0	 0.0	 0	     1.0286	    -4.8845	 400.0	 0	     1.0500	     0.9500;
	10081	 1	 -1078.30	 -374.10	 0.0	 0.0	 0	     1.0345	    -0.9189	 400.0	 0	     1.0500	     0.9500;
	10082	 1	 1086.98	 310.20	 0.0	 0.0	 0	     1.0037	    -4.4374	 400.0	 0	     1.0500	     0.9500;
	10083	 1	 111.79	 26.00	 0.0	 0.0	 0	     1.0414	    -5.5438	 400.0	 0	     1.0500	     0.9500;
	10084	 1	 0.69	 160.00	 0.0	 0.0	 0	     1.0421	    -5.4102	 400.0	 0	     1.0500	     0.9500;
	10085	 1	 186.23	 183.60	 0.0	 0.0	 0	     1.0411	    -5.5251	 400.0	 0	     1.0500	     0.9500;
	10086	 1	 332.59	 221.60	 0.0	 0.0	 0	     1.0411	    -5.5277	 400.0	 0	     1.0500	     0.9500;
	10087	 1	 0.00	 0.00	 0.0	 0.0	 0	     1.0431	    -5.3178	 400.0	 0	     1.0500	     0.9500;
	10088	 1	 0.00	 0.00	 0.0	 0.0	 0	     1.0890	    -5.6232	 220.0	 0	     1.1100	     0.9500;
	10089	 1	 0.00	 0.00	 0.0	 0.0	 0	     1.0867	    -5.7485	 220.0	 0	     1.1100	     0.9500;
	10090	 2	 316.23	 279.60	 0.0	 0.0	 0	     1.0414	    -5.5189	 400.0	 0	     1.0500	     0.9500;
	10091	 1	 108.56	 111.80	 0.0	 0.0	 0	     1.0408	    -5.5352	 400.0	 0	     1.0500	     0.9500;
	10092	 1	 0.00	 0.00	 0.0	 0.0	 0	     1.0851	    -5.8160	 220.0	 0	     1.1100	     0.9500;
	10093	 1	 0.00	 0.00	 0.0	 0.0	 0	     1.0877	    -5.6707	 220.0	 0	     1.1100	     0.9500;
	10094	 2	 0.00	 0.00	 0.0	 0.0	 0	     1.0353	    -4.6408	 400.0	 0	     1.0500	     0.9500;
	10095	 2	 4.40	 -2590.10	 0.0	 0.0	 0	     1.0297	    -6.0357	 400.0	 0	     1.0500	     0.9500;
	10096	 1	 562.39	 79.10	 0.0	 0.0	 0	     1.0213	    -6.2389	 400.0	 0	     1.0500	     0.9500;
	10097	 1	 692.61	 147.90	 0.0	 0.0	 0	     1.0247	    -6.1492	 400.0	 0	     1.0500	     0.9500;
	10098	 1	 607.33	 265.10	 0.0	 0.0	 0	     1.0259	    -5.4256	 400.0	 0	     1.0500	     0.9500;
	10099	 1	 0.00	 0.00	 0.0	 0.0	 0	     1.0048	    -2.4281	 400.0	 0	     1.0500	     0.9500;
	10100	 2	 0.00	 0.00	 0.0	 0.0	 0	     1.0407	    -0.8629	 400.0	 0	     1.0500	     0.9500;
	10101	 1	 0.00	 0.00	 0.0	 0.0	 0	     1.0399	   -13.1789	 220.0	 0	     1.1100	     0.9500;
	10102	 1	 138.29	 25.00	 0.0	 0.0	 0	     1.0587	    -7.3916	 220.0	 0	     1.1100	     0.9500;
	10103	 1	 0.00	 0.00	 0.0	 0.0	 0	     1.0397	    -3.4717	 400.0	 0	     1.0500	     0.9500;
	10104	 2	 230.72	 48.70	 0.0	 0.0	 0	     1.0441	    -2.3560	 400.0	 0	     1.0500	     0.9500;
	10105	 1	 0.00	 0.00	 0.0	 0.0	 0	     1.0647	    -7.8075	 220.0	 0	     1.1100	     0.9500;
	10106	 1	 0.00	 0.00	 0.0	 0.0	 0	     1.0344	    -4.4715	 400.0	 0	     1.0500	     0.9500;
	10107	 1	 0.00	 0.00	 0.0	 0.0	 0	     1.0422	    -3.1218	 400.0	 0	     1.0500	     0.9500;
	10108	 1	 0.00	 0.00	 0.0	 0.0	 0	     1.0428	    -2.8054	 400.0	 0	     1.0500	     0.9500;
	10109	 1	 0.00	 0.00	 0.0	 0.0	 0	     1.0422	    -3.0452	 400.0	 0	     1.0500	     0.9500;
	10110	 1	 0.00	 0.00	 0.0	 0.0	 0	     1.0428	    -2.7241	 400.0	 0	     1.0500	     0.9500;
	10111	 1	 0.00	 0.00	 0.0	 0.0	 0	     1.0263	    -1.8191	 400.0	 0	     1.0500	     0.9500;
	10112	 1	 0.00	 0.00	 0.0	 0.0	 0	     1.1081	    -5.0326	 220.0	 0	     1.1100	     0.9500;
	10113	 1	 0.00	 0.00	 0.0	 0.0	 0	     1.0181	    -2.5123	 400.0	 0	     1.0500	     0.9500;
	10114	 1	 0.00	 0.00	 0.0	 0.0	 0	     1.0906	    -6.9553	 220.0	 0	     1.1100	     0.9500;
	10115	 2	 0.00	 0.00	 0.0	 0.0	 0	     1.0023	    -2.2073	 400.0	 0	     1.0500	     0.9500;
	10116	 2	 0.00	 0.00	 0.0	 0.0	 0	     1.0023	    -2.2073	 400.0	 0	     1.0500	     0.9500;
	10117	 1	 0.00	 0.00	 0.0	 0.0	 0	     1.0322	    -5.3856	 400.0	 0	     1.0500	     0.9500;
	10118	 2	 0.00	 0.00	 0.0	 0.0	 0	     1.0410	    -0.5249	 400.0	 0	     1.0500	     0.9500;
	10119	 1	 0.00	 0.00	 0.0	 0.0	 0	     1.0122	    -3.2983	 400.0	 0	     1.0500	     0.9500;
	10120	 1	 0.00	 0.00	 0.0	 0.0	 0	     1.0398	    -3.9626	 400.0	 0	     1.0500	     0.9500;
	10121	 1	 92.19	 20.00	 0.0	 0.0	 0	     1.0572	    -6.3441	 220.0	 0	     1.1100	     0.9500;
	10122	 1	 0.00	 0.00	 0.0	 0.0	 0	     1.0502	    -9.7844	 220.0	 0	     1.1100	     0.9500;
	10123	 1	 0.00	 0.00	 0.0	 0.0	 0	     1.0489	    -3.7108	 400.0	 0	     1.0500	     0.9500;
	10124	 1	 0.00	 0.00	 0.0	 0.0	 0	     1.0500	    -0.9584	 400.0	 0	     1.0500	     0.9500;
	10125	 1	 0.00	 0.00	 0.0	 0.0	 0	     1.0132	    -4.3922	 400.0	 0	     1.0500	     0.9500;
	10126	 2	 0.00	 0.00	 0.0	 0.0	 0	     1.0080	    -3.5414	 400.0	 0	     1.0500	     0.9500;
	10127	 1	 0.00	 0.00	 0.0	 0.0	 0	     1.0961	    -7.2241	 220.0	 0	     1.1100	     0.9500;
	10128	 1	 0.00	 0.00	 0.0	 0.0	 0	     1.0961	    -7.2241	 220.0	 0	     1.1100	     0.9500;
	10129	 2	 0.23	 100.00	 0.0	 0.0	 0	     1.0454	     0.0245	 400.0	 0	     1.0500	     0.9500;
	10130	 1	 0.00	 0.00	 0.0	 0.0	 0	     1.0455	    -0.0020	 400.0	 0	     1.0500	     0.9500;
	10131	 1	 0.00	 0.00	 0.0	 0.0	 0	     1.0097	    -4.0407	 400.0	 0	     1.0500	     0.9500;
	10132	 2	 0.00	 0.00	 0.0	 0.0	 0	     1.0291	    -4.5493	 400.0	 0	     1.0500	     0.9500;
	10133	 1	 0.00	 0.00	 0.0	 0.0	 0	     1.0500	    -4.3337	 400.0	 0	     1.0500	     0.9500;
	10134	 1	 0.00	 0.00	 0.0	 0.0	 0	     1.0471	    -4.9662	 400.0	 0	     1.0500	     0.9500;
	10135	 1	 0.00	 0.00	 0.0	 0.0	 0	     1.0514	    -5.1369	 220.0	 0	     1.1100	     0.9500;
	10136	 1	 0.00	 0.00	 0.0	 0.0	 0	     1.0716	    -7.4874	 220.0	 0	     1.1100	     0.9500;
	10137	 1	 0.00	 0.00	 0.0	 0.0	 0	     1.0387	   -15.9892	 220.0	 0	     1.1100	     0.9500;
	10138	 1	 0.00	 0.00	 0.0	 0.0	 0	     1.0340	    -5.1618	 400.0	 0	     1.0500	     0.9500;
	10139	 2	 0.00	 0.00	 0.0	 0.0	 0	     1.0374	    -1.8179	 400.0	 0	     1.0500	     0.9500;
	10140	 2	 0.00	 0.00	 0.0	 0.0	 0	     1.0386	    -1.3347	 400.0	 0	     1.0500	     0.9500;
	10141	 2	 0.00	 0.00	 0.0	 0.0	 0	     1.0126	    -1.6168	 400.0	 0	     1.0500	     0.9500;
	10142	 1	 0.00	 0.00	 0.0	 0.0	 0	     1.0374	    -4.8839	 400.0	 0	     1.0500	     0.9500;
	10143	 1	 0.00	 0.00	 0.0	 0.0	 0	     1.0360	    -3.0404	 400.0	 0	     1.0500	     0.9500;
	10144	 1	 0.00	 0.00	 0.0	 0.0	 0	     1.0360	    -3.0391	 400.0	 0	     1.0500	     0.9500;
	10145	 1	 0.00	 0.00	 0.0	 0.0	 0	     1.0103	    -3.7420	 400.0	 0	     1.0500	     0.9500;
	10146	 2	 0.00	 0.00	 0.0	 0.0	 0	     1.0430	    -3.5178	 220.0	 0	     1.1100	     0.9500;
	10147	 1	 0.00	 0.00	 0.0	 0.0	 0	     1.0313	    -5.3705	 400.0	 0	     1.0500	     0.9500;
	10148	 1	 0.00	 0.00	 0.0	 0.0	 0	     1.0736	    -7.1543	 220.0	 0	     1.1100	     0.9500;
	10149	 1	 0.00	 0.00	 0.0	 0.0	 0	     1.0736	    -7.1571	 220.0	 0	     1.1100	     0.9500;
	10150	 2	 0.00	 0.00	 0.0	 0.0	 0	     1.0401	    -3.3455	 400.0	 0	     1.0500	     0.9500;
	10151	 1	 0.00	 0.00	 0.0	 0.0	 0	     1.0415	    -3.0972	 400.0	 0	     1.0500	     0.9500;
	10152	 1	 0.00	 0.00	 0.0	 0.0	 0	     1.0467	    -1.4259	 400.0	 0	     1.0500	     0.9500;
	10153	 1	 0.00	 0.00	 0.0	 0.0	 0	     1.0310	    -2.8434	 400.0	 0	     1.0500	     0.9500;
	10154	 1	 92.19	 20.00	 0.0	 0.0	 0	     1.0360	    -4.2555	 220.0	 0	     1.1100	     0.9500;
	10155	 1	 0.00	 0.00	 0.0	 0.0	 0	     1.0819	    -7.3652	 220.0	 0	     1.1100	     0.9500;
	10156	 1	 0.00	 0.00	 0.0	 0.0	 0	     1.0308	    -5.1579	 400.0	 0	     1.0500	     0.9500;
	10157	 1	 0.00	 0.00	 0.0	 0.0	 0	     1.0872	    -5.5406	 220.0	 0	     1.1100	     0.9500;
	10158	 1	 0.00	 0.00	 0.0	 0.0	 0	     1.0137	    -2.9668	 400.0	 0	     1.0500	     0.9500;
	10159	 1	 0.00	 0.00	 0.0	 0.0	 0	     1.1100	    -4.8946	 220.0	 0	     1.1100	     0.9500;
	10160	 1	 0.00	 0.00	 0.0	 0.0	 0	     1.0642	   -17.6683	 220.0	 0	     1.1100	     0.9500;
	10161	 1	 0.00	 0.00	 0.0	 0.0	 0	     1.0209	    -4.6811	 400.0	 0	     1.0500	     0.9500;
	10162	 1	 0.00	 0.00	 0.0	 0.0	 0	     1.0593	    -8.9055	 220.0	 0	     1.1100	     0.9500;
	10163	 1	 0.00	 0.00	 0.0	 0.0	 0	     1.0945	    -7.4474	 220.0	 0	     1.1100	     0.9500;
	10164	 1	 0.00	 0.00	 0.0	 0.0	 0	     1.0290	    -4.9284	 400.0	 0	     1.0500	     0.9500;
	10165	 1	 0.00	 0.00	 0.0	 0.0	 0	     1.0334	    -5.5701	 400.0	 0	     1.0500	     0.9500;
	10166	 1	 0.00	 0.00	 0.0	 0.0	 0	     1.0661	    -6.4215	 220.0	 0	     1.1100	     0.9500;
	10167	 1	 0.00	 0.00	 0.0	 0.0	 0	     1.0291	    -5.0415	 400.0	 0	     1.0500	     0.9500;
	10168	 1	 0.00	 0.00	 0.0	 0.0	 0	     1.0291	    -5.0415	 400.0	 0	     1.0500	     0.9500;
	10169	 1	 0.00	 0.00	 0.0	 0.0	 0	     1.0294	    -4.9950	 400.0	 0	     1.0500	     0.9500;
	10170	 1	 0.00	 0.00	 0.0	 0.0	 0	     1.0294	    -4.9950	 400.0	 0	     1.0500	     0.9500;
	10171	 2	 -104.80	 -159.00	 0.0	 0.0	 0	     1.0295	    -4.6362	 400.0	 0	     1.0500	     0.9500;
	10172	 1	 247.40	 -57.50	 0.0	 0.0	 0	     1.0297	    -6.0402	 400.0	 0	     1.0500	     0.9500;
	10173	 1	 247.40	 -57.50	 0.0	 0.0	 0	     1.0297	    -6.0402	 400.0	 0	     1.0500	     0.9500;
	10174	 1	 428.13	 403.50	 0.0	 0.0	 0	     1.0206	    -6.2604	 400.0	 0	     1.0500	     0.9500;
	10176	 2	 -249.90	 162.60	 0.0	 0.0	 0	     1.0298	    -4.7916	 400.0	 0	     1.0500	     0.9500;
	10177	 2	 -249.90	 162.60	 0.0	 0.0	 0	     1.0298	    -4.7916	 400.0	 0	     1.0500	     0.9500;
	10178	 1	 60.50	 207.20	 0.0	 0.0	 0	     1.0273	   -10.4183	 400.0	 0	     1.0500	     0.9500;
	10179	 1	 437.35	 54.60	 0.0	 0.0	 0	     1.0389	   -13.2201	 400.0	 0	     1.0500	     0.9500;
	10180	 1	 73.60	 -95.60	 0.0	 0.0	 0	     1.0876	   -16.7535	 220.0	 0	     1.1100	     0.9500;
	10181	 1	 73.60	 -95.60	 0.0	 0.0	 0	     1.0876	   -16.7535	 220.0	 0	     1.1100	     0.9500;
	10182	 1	 107.20	 -44.40	 0.0	 0.0	 0	     1.0500	   -12.7111	 400.0	 0	     1.0500	     0.9500;
	10183	 1	 99.11	 8.00	 0.0	 0.0	 0	     1.0486	   -10.4540	 400.0	 0	     1.0500	     0.9500;
	10184	 1	 80.67	 49.00	 0.0	 0.0	 0	     1.0507	   -14.3310	 220.0	 0	     1.1100	     0.9500;
	10185	 1	 0.00	 0.00	 0.0	 0.0	 0	     1.0494	   -12.6717	 400.0	 0	     1.0500	     0.9500;
	10186	 2	 0.00	 0.00	 0.0	 0.0	 0	     1.0893	    -7.6091	 220.0	 0	     1.1100	     0.9500;
	10187	 2	 0.00	 0.00	 0.0	 0.0	 0	     1.0894	    -7.5762	 220.0	 0	     1.1100	     0.9500;
	10188	 2	 0.00	 0.00	 0.0	 0.0	 0	     1.0459	    -9.1200	 400.0	 0	     1.0500	     0.9500;
	10189	 2	 10.20	 0.00	 0.0	 0.0	 0	     1.0456	   -10.3671	 400.0	 0	     1.0500	     0.9500;
	10190	 2	 0.00	 0.00	 0.0	 0.0	 0	     1.0429	    -9.9602	 400.0	 0	     1.0500	     0.9500;
	10191	 2	 0.00	 0.00	 0.0	 0.0	 0	     1.0429	    -9.9550	 400.0	 0	     1.0500	     0.9500;
	10192	 2	 0.00	 0.00	 0.0	 0.0	 0	     1.0407	   -11.0432	 220.0	 0	     1.1100	     0.9500;
	10193	 1	 0.00	 0.00	 0.0	 0.0	 0	     1.0407	   -11.0455	 220.0	 0	     1.1100	     0.9500;
	10194	 2	 0.00	 0.00	 0.0	 0.0	 0	     1.0358	    -9.3991	 400.0	 0	     1.0500	     0.9500;
	10195	 1	 0.00	 0.00	 0.0	 0.0	 0	     1.0366	    -9.4381	 400.0	 0	     1.0500	     0.9500;
	10196	 2	 0.00	 0.00	 0.0	 0.0	 0	     1.0409	   -12.6982	 400.0	 0	     1.0500	     0.9500;
	10197	 1	 339.97	 51.90	 0.0	 0.0	 0	     1.0440	   -12.2282	 400.0	 0	     1.0500	     0.9500;
	10198	 1	 0.00	 0.00	 0.0	 0.0	 0	     1.0466	   -10.8692	 400.0	 0	     1.0500	     0.9500;
	10199	 1	 354.95	 40.00	 0.0	 0.0	 0	     1.0815	   -10.1017	 220.0	 0	     1.1100	     0.9500;
	10200	 1	 0.00	 0.00	 0.0	 0.0	 0	     1.0815	   -10.0850	 220.0	 0	     1.1100	     0.9500;
...
];

%% generator data
%	bus	Pg	Qg	Qmax	Qmin	Vg	mBase	status	Pmax	Pmin	Pc1	Pc2	Qc1min	Qc1max	Qc2min	Qc2max	ramp_agc	ramp_10	ramp_30	ramp_q	apf
mpc.gen = [
	10071	 180.0	 -31.0	 103.0	 -103.0	 1.07617	 285.0	 1	 181	 66.95	 0.0	 0.0	 0.0	 0.0	 0.0	 0.0	 0.0	 0.0	 0.0	 0.0	 0.0; % NG
	10079	 377.0	 4240.0	 5088.0	 -5088.0	 1.01319	 2031.0	 1	 391	 179.95	 0.0	 0.0	 0.0	 0.0	 0.0	 0.0	 0.0	 0.0	 0.0	 0.0	 0.0; % NG
	10080	 37.0	 -4.0	 63.0	 -63.0	 1.02855	 119.0	 1	 126	 3.8	 0.0	 0.0	 0.0	 0.0	 0.0	 0.0	 0.0	 0.0	 0.0	 0.0	 0.0; % NG
	10090	 454.0	 164.0	 455.0	 -455.0	 1.04139	 806.0	 1	 910	 205.2	 0.0	 0.0	 0.0	 0.0	 0.0	 0.0	 0.0	 0.0	 0.0	 0.0	 0.0; % COW
	10094	 579.0	 96197.0	 115436.4	 -115436.4	 1.03526	 970.0	 1	 1119	 277.2	 0.0	 0.0	 0.0	 0.0	 0.0	 0.0	 0.0	 0.0	 0.0	 0.0	 0.0; % COW
	10095	 154.0	 -2603.0	 3123.6	 -3123.6	 1.02969	 1439.0	 1	 316	 60.9	 0.0	 0.0	 0.0	 0.0	 0.0	 0.0	 0.0	 0.0	 0.0	 0.0	 0.0; % COW
	10100	 1290.0	 -136.0	 968.0	 -968.0	 1.04073	 2202.0	 1	 1574	 633.6	 0.0	 0.0	 0.0	 0.0	 0.0	 0.0	 0.0	 0.0	 0.0	 0.0	 0.0; % COW
	10104	 562.0	 46.0	 517.0	 -517.0	 1.04409	 939.0	 1	 1034	 270.0	 0.0	 0.0	 0.0	 0.0	 0.0	 0.0	 0.0	 0.0	 0.0	 0.0	 0.0; % COW
	10115	 302.0	 -22.0	 215.0	 -215.0	 1.00234	 492.0	 1	 342	 140.4	 0.0	 0.0	 0.0	 0.0	 0.0	 0.0	 0.0	 0.0	 0.0	 0.0	 0.0; % NG
	10116	 302.0	 -22.0	 215.0	 -215.0	 1.00234	 492.0	 1	 345	 140.4	 0.0	 0.0	 0.0	 0.0	 0.0	 0.0	 0.0	 0.0	 0.0	 0.0	 0.0; % NG
	10118	 1102.0	 -33.0	 825.0	 -825.0	 1.04097	 1876.0	 1	 1129	 540.0	 0.0	 0.0	 0.0	 0.0	 0.0	 0.0	 0.0	 0.0	 0.0	 0.0	 0.0; % COW
	10126	 451.0	 -144.0	 325.0	 -325.0	 1.00802	 786.0	 1	 603	 212.4	 0.0	 0.0	 0.0	 0.0	 0.0	 0.0	 0.0	 0.0	 0.0	 0.0	 0.0; % COW
	10129	 1677.0	 -572.0	 1265.0	 -1265.0	 1.04538	 2974.0	 1	 1963	 828.0	 0.0	 0.0	 0.0	 0.0	 0.0	 0.0	 0.0	 0.0	 0.0	 0.0	 0.0; % COW
	10132	 609.0	 -46.0	 446.0	 -446.0	 1.02908	 1014.0	 1	 806	 291.6	 0.0	 0.0	 0.0	 0.0	 0.0	 0.0	 0.0	 0.0	 0.0	 0.0	 0.0; % COW
	10139	 671.0	 -211.0	 495.0	 -495.0	 1.03742	 1143.0	 1	 944	 324.0	 0.0	 0.0	 0.0	 0.0	 0.0	 0.0	 0.0	 0.0	 0.0	 0.0	 0.0; % COW
	10140	 994.0	 -157.0	 743.0	 -743.0	 1.03856	 1705.0	 1	 1112	 486.0	 0.0	 0.0	 0.0	 0.0	 0.0	 0.0	 0.0	 0.0	 0.0	 0.0	 0.0; % COW
	10141	 1246.0	 -190.0	 935.0	 -935.0	 1.01264	 2125.0	 1	 1407	 612.0	 0.0	 0.0	 0.0	 0.0	 0.0	 0.0	 0.0	 0.0	 0.0	 0.0	 0.0; % NG
	10146	 143.0	 -102.0	 248.0	 -248.0	 1.04296	 224.0	 1	 495	 57.6	 0.0	 0.0	 0.0	 0.0	 0.0	 0.0	 0.0	 0.0	 0.0	 0.0	 0.0; % COW
	10150	 227.0	 43.0	 183.0	 -183.0	 1.04015	 427.0	 1	 366	 100.8	 0.0	 0.0	 0.0	 0.0	 0.0	 0.0	 0.0	 0.0	 0.0	 0.0	 0.0; % NG
	10171	 110.0	 -91001.0	 109201.2	 -109201.2	 1.02955	 715.0	 1	 222	 42.3	 0.0	 0.0	 0.0	 0.0	 0.0	 0.0	 0.0	 0.0	 0.0	 0.0	 0.0; % NG
	10176	 211.0	 338.0	 405.6	 -405.6	 1.02979	 346.0	 1	 354	 95.5	 0.0	 0.0	 0.0	 0.0	 0.0	 0.0	 0.0	 0.0	 0.0	 0.0	 0.0; % COW
	10177	 211.0	 338.0	 405.6	 -405.6	 1.02979	 346.0	 1	 471	 95.5	 0.0	 0.0	 0.0	 0.0	 0.0	 0.0	 0.0	 0.0	 0.0	 0.0	 0.0; % NG
	10186	 358.0	 17.0	 431.0	 -431.0	 1.08932	 618.0	 1	 862	 171.35	 0.0	 0.0	 0.0	 0.0	 0.0	 0.0	 0.0	 0.0	 0.0	 0.0	 0.0; % COW
	10187	 358.0	 17.0	 836.0	 -836.0	 1.0894	 618.0	 1	 1672	 171.35	 0.0	 0.0	 0.0	 0.0	 0.0	 0.0	 0.0	 0.0	 0.0	 0.0	 0.0; % COW
	10188	 384.0	 -95.0	 375.0	 -375.0	 1.04594	 618.0	 1	 749	 173.9	 0.0	 0.0	 0.0	 0.0	 0.0	 0.0	 0.0	 0.0	 0.0	 0.0	 0.0; % COW
	10189	 321.0	 -80.0	 272.0	 -272.0	 1.04556	 620.0	 1	 340	 141.5	 0.0	 0.0	 0.0	 0.0	 0.0	 0.0	 0.0	 0.0	 0.0	 0.0	 0.0; % NG
	10190	 407.0	 3.0	 712.0	 -712.0	 1.04288	 683.0	 1	 1424	 185.75	 0.0	 0.0	 0.0	 0.0	 0.0	 0.0	 0.0	 0.0	 0.0	 0.0	 0.0; % COW
	10191	 406.0	 3.0	 300.0	 -300.0	 1.04288	 682.0	 1	 415	 185.4	 0.0	 0.0	 0.0	 0.0	 0.0	 0.0	 0.0	 0.0	 0.0	 0.0	 0.0; % COW
	10192	 154.0	 34.0	 124.0	 -124.0	 1.04073	 281.0	 1	 155	 55.8	 0.0	 0.0	 0.0	 0.0	 0.0	 0.0	 0.0	 0.0	 0.0	 0.0	 0.0; % NG
	10194	 105.0	 -108.0	 129.6	 -129.6	 1.03584	 184.0	 1	 108	 32.4	 0.0	 0.0	 0.0	 0.0	 0.0	 0.0	 0.0	 0.0	 0.0	 0.0	 0.0; % COW
	10196	 157.0	 -107.0	 128.4	 -128.4	 1.04091	 215.0	 1	 232	 54.0	 0.0	 0.0	 0.0	 0.0	 0.0	 0.0	 0.0	 0.0	 0.0	 0.0	 0.0; % COW
	10223	 38.0	 160.0	 192.0	 -192.0	 1.04073	 189.0	 1	 47	 0.0	 0.0	 0.0	 0.0	 0.0	 0.0	 0.0	 0.0	 0.0	 0.0	 0.0	 0.0; % NG
	10225	 111.0	 159.0	 190.8	 -190.8	 1.06248	 333.0	 1	 168	 38.9	 0.0	 0.0	 0.0	 0.0	 0.0	 0.0	 0.0	 0.0	 0.0	 0.0	 0.0; % NG
	10226	 66.0	 108.0	 129.6	 -129.6	 1.06441	 198.0	 1	 246	 17.3	 0.0	 0.0	 0.0	 0.0	 0.0	 0.0	 0.0	 0.0	 0.0	 0.0	 0.0; % COW
	10227	 65.0	 -58.0	 69.6	 -69.6	 1.10423	 191.0	 1	 124	 5.75	 0.0	 0.0	 0.0	 0.0	 0.0	 0.0	 0.0	 0.0	 0.0	 0.0	 0.0; % PEL
	10228	 125.0	 139.0	 166.8	 -166.8	 1.06247	 135.0	 1	 143	 9.35	 0.0	 0.0	 0.0	 0.0	 0.0	 0.0	 0.0	 0.0	 0.0	 0.0	 0.0; % NG
	10229	 94.0	 33.0	 165.0	 -165.0	 1.06902	 85.0	 1	 329	 19.8	 0.0	 0.0	 0.0	 0.0	 0.0	 0.0	 0.0	 0.0	 0.0	 0.0	 0.0; % NG
	10230	 11.0	 44.0	 52.8	 -52.8	 1.07323	 132.0	 1	 15	 0.0	 0.0	 0.0	 0.0	 0.0	 0.0	 0.0	 0.0	 0.0	 0.0	 0.0	 0.0; % PEL
	10232	 85.0	 111.0	 133.2	 -133.2	 1.01987	 64.0	 1	 123	 5.6	 0.0	 0.0	 0.0	 0.0	 0.0	 0.0	 0.0	 0.0	 0.0	 0.0	 0.0; % PEL
	10233	 95.0	 67.0	 91.0	 -91.0	 1.04665	 79.0	 1	 181	 22.7	 0.0	 0.0	 0.0	 0.0	 0.0	 0.0	 0.0	 0.0	 0.0	 0.0	 0.0; % NG
	10234	 112.0	 169.0	 202.8	 -202.8	 1.09129	 115.0	 1	 121	 1.8	 0.0	 0.0	 0.0	 0.0	 0.0	 0.0	 0.0	 0.0	 0.0	 0.0	 0.0; % NG
	10235	 80.0	 17.0	 77.0	 -77.0	 1.08091	 83.0	 1	 154	 14.4	 0.0	 0.0	 0.0	 0.0	 0.0	 0.0	 0.0	 0.0	 0.0	 0.0	 0.0; % NG
	10236	 154.0	 -19.0	 261.0	 -261.0	 1.07896	 219.0	 1	 521	 59.75	 0.0	 0.0	 0.0	 0.0	 0.0	 0.0	 0.0	 0.0	 0.0	 0.0	 0.0; % NG
	10237	 107.0	 104.0	 124.8	 -124.8	 1.08023	 121.0	 1	 148	 25.2	 0.0	 0.0	 0.0	 0.0	 0.0	 0.0	 0.0	 0.0	 0.0	 0.0	 0.0; % PEL
	10238	 138.0	 245.0	 294.0	 -294.0	 1.00809	 179.0	 1	 435	 30.95	 0.0	 0.0	 0.0	 0.0	 0.0	 0.0	 0.0	 0.0	 0.0	 0.0	 0.0; % NG
	10239	 110.0	 -9.0	 122.0	 -122.0	 1.06246	 109.0	 1	 243	 31.3	 0.0	 0.0	 0.0	 0.0	 0.0	 0.0	 0.0	 0.0	 0.0	 0.0	 0.0; % NG
	10240	 22.0	 40.0	 48.0	 -48.0	 1.0666	 128.0	 1	 45	 0.0	 0.0	 0.0	 0.0	 0.0	 0.0	 0.0	 0.0	 0.0	 0.0	 0.0	 0.0; % PEL
	10246	 184.0	 -9.0	 127.0	 -127.0	 1.03917	 262.0	 1	 254	 73.1	 0.0	 0.0	 0.0	 0.0	 0.0	 0.0	 0.0	 0.0	 0.0	 0.0	 0.0; % NG
	10247	 113.0	 -24.0	 79.0	 -79.0	 1.12	 215.0	 1	 136	 51.1	 0.0	 0.0	 0.0	 0.0	 0.0	 0.0	 0.0	 0.0	 0.0	 0.0	 0.0; % NG
	10248	 139.0	 -19.0	 94.0	 -94.0	 1.12	 241.0	 1	 155	 61.2	 0.0	 0.0	 0.0	 0.0	 0.0	 0.0	 0.0	 0.0	 0.0	 0.0	 0.0; % NG
	10249	 187.0	 47.0	 179.0	 -179.0	 1.00179	 225.0	 1	 358	 64.0	 0.0	 0.0	 0.0	 0.0	 0.0	 0.0	 0.0	 0.0	 0.0	 0.0	 0.0; % NG
	10250	 407.0	 27.0	 544.0	 -544.0	 1.0404	 650.0	 1	 1088	 187.2	 0.0	 0.0	 0.0	 0.0	 0.0	 0.0	 0.0	 0.0	 0.0	 0.0	 0.0; % COW
	10251	 409.0	 25.0	 341.0	 -341.0	 1.03995	 650.0	 1	 681	 187.2	 0.0	 0.0	 0.0	 0.0	 0.0	 0.0	 0.0	 0.0	 0.0	 0.0	 0.0; % COW
	10252	 409.0	 25.0	 645.0	 -645.0	 1.03994	 650.0	 1	 1289	 187.2	 0.0	 0.0	 0.0	 0.0	 0.0	 0.0	 0.0	 0.0	 0.0	 0.0	 0.0; % COW
	10253	 242.0	 94.0	 229.0	 -229.0	 1.01534	 341.0	 1	 457	 93.95	 0.0	 0.0	 0.0	 0.0	 0.0	 0.0	 0.0	 0.0	 0.0	 0.0	 0.0; % NG
	10254	 387.0	 89.0	 262.0	 -262.0	 1.04999	 598.0	 1	 403	 171.35	 0.0	 0.0	 0.0	 0.0	 0.0	 0.0	 0.0	 0.0	 0.0	 0.0	 0.0; % COW
	10255	 149.0	 33.0	 93.0	 -93.0	 1.03994	 210.0	 1	 180	 60.5	 0.0	 0.0	 0.0	 0.0	 0.0	 0.0	 0.0	 0.0	 0.0	 0.0	 0.0; % NG
	10256	 327.0	 -87.0	 215.0	 -215.0	 1.11998	 489.0	 1	 367	 140.4	 0.0	 0.0	 0.0	 0.0	 0.0	 0.0	 0.0	 0.0	 0.0	 0.0	 0.0; % NG
	10257	 190.0	 -106.0	 300.0	 -300.0	 1.11817	 250.0	 1	 600	 70.2	 0.0	 0.0	 0.0	 0.0	 0.0	 0.0	 0.0	 0.0	 0.0	 0.0	 0.0; % NG
	10258	 158.0	 -55.0	 115.0	 -115.0	 1.10518	 230.0	 1	 230	 64.8	 0.0	 0.0	 0.0	 0.0	 0.0	 0.0	 0.0	 0.0	 0.0	 0.0	 0.0; % NG
	10259	 311.0	 200.0	 543.0	 -543.0	 0.98182	 519.0	 1	 1086	 141.85	 0.0	 0.0	 0.0	 0.0	 0.0	 0.0	 0.0	 0.0	 0.0	 0.0	 0.0; % COW
	10260	 452.0	 -98.0	 326.0	 -326.0	 1.10941	 741.0	 1	 525	 212.75	 0.0	 0.0	 0.0	 0.0	 0.0	 0.0	 0.0	 0.0	 0.0	 0.0	 0.0; % COW
	10261	 615.0	 169.0	 476.0	 -476.0	 0.99592	 1100.0	 1	 622	 289.8	 0.0	 0.0	 0.0	 0.0	 0.0	 0.0	 0.0	 0.0	 0.0	 0.0	 0.0; % COW
	10262	 615.0	 171.0	 476.0	 -476.0	 0.99592	 1100.0	 1	 765	 289.8	 0.0	 0.0	 0.0	 0.0	 0.0	 0.0	 0.0	 0.0	 0.0	 0.0	 0.0; % COW
	10263	 92.0	 7.0	 65.0	 -65.0	 1.09219	 121.0	 1	 130	 33.85	 0.0	 0.0	 0.0	 0.0	 0.0	 0.0	 0.0	 0.0	 0.0	 0.0	 0.0; % COW
	10264	 308.0	 129.0	 231.0	 -231.0	 1.00552	 489.0	 1	 461	 140.4	 0.0	 0.0	 0.0	 0.0	 0.0	 0.0	 0.0	 0.0	 0.0	 0.0	 0.0; % COW
	10265	 308.0	 -83.0	 215.0	 -215.0	 1.10573	 496.0	 1	 318	 140.4	 0.0	 0.0	 0.0	 0.0	 0.0	 0.0	 0.0	 0.0	 0.0	 0.0	 0.0; % COW
	10266	 47.0	 20.0	 40.0	 -40.0	 1.04403	 72.0	 1	 79	 1.8	 0.0	 0.0	 0.0	 0.0	 0.0	 0.0	 0.0	 0.0	 0.0	 0.0	 0.0; % PEL
	10267	 41.0	 19.0	 69.0	 -69.0	 1.08131	 120.0	 1	 137	 2.15	 0.0	 0.0	 0.0	 0.0	 0.0	 0.0	 0.0	 0.0	 0.0	 0.0	 0.0; % COW
	10268	 62.0	 -48.0	 57.6	 -57.6	 1.06395	 37.0	 1	 109	 10.45	 0.0	 0.0	 0.0	 0.0	 0.0	 0.0	 0.0	 0.0	 0.0	 0.0	 0.0; % PEL
	10269	 123.0	 129.0	 146.0	 -146.0	 1.07428	 338.0	 1	 131	 34.2	 0.0	 0.0	 0.0	 0.0	 0.0	 0.0	 0.0	 0.0	 0.0	 0.0	 0.0; % NG
	10270	 40.0	 28.0	 91.0	 -91.0	 1.05973	 40.0	 1	 181	 0.0	 0.0	 0.0	 0.0	 0.0	 0.0	 0.0	 0.0	 0.0	 0.0	 0.0	 0.0; % NG
	10271	 248.0	 76.0	 224.0	 -224.0	 1.06494	 286.0	 1	 448	 78.1	 0.0	 0.0	 0.0	 0.0	 0.0	 0.0	 0.0	 0.0	 0.0	 0.0	 0.0; % COW
	10272	 69.0	 4.0	 66.0	 -66.0	 1.072	 116.0	 1	 132	 12.25	 0.0	 0.0	 0.0	 0.0	 0.0	 0.0	 0.0	 0.0	 0.0	 0.0	 0.0; % NG
	10273	 248.0	 137.0	 221.0	 -221.0	 1.02431	 321.0	 1	 442	 82.8	 0.0	 0.0	 0.0	 0.0	 0.0	 0.0	 0.0	 0.0	 0.0	 0.0	 0.0; % COW
	10274	 98.0	 116.0	 154.0	 -154.0	 1.06504	 317.0	 1	 308	 30.6	 0.0	 0.0	 0.0	 0.0	 0.0	 0.0	 0.0	 0.0	 0.0	 0.0	 0.0; % NG
	10275	 56.0	 19.0	 55.0	 -55.0	 1.06182	 125.0	 1	 90	 10.8	 0.0	 0.0	 0.0	 0.0	 0.0	 0.0	 0.0	 0.0	 0.0	 0.0	 0.0; % PEL
	10276	 170.0	 29.0	 102.0	 -102.0	 1.06034	 189.0	 1	 203	 53.65	 0.0	 0.0	 0.0	 0.0	 0.0	 0.0	 0.0	 0.0	 0.0	 0.0	 0.0; % COW
	10277	 136.0	 23.0	 146.0	 -146.0	 1.06264	 225.0	 1	 292	 40.3	 0.0	 0.0	 0.0	 0.0	 0.0	 0.0	 0.0	 0.0	 0.0	 0.0	 0.0; % NG
	10278	 154.0	 -4.0	 178.0	 -178.0	 1.11356	 233.0	 1	 355	 64.8	 0.0	 0.0	 0.0	 0.0	 0.0	 0.0	 0.0	 0.0	 0.0	 0.0	 0.0; % NG
	10279	 154.0	 -4.0	 99.0	 -99.0	 1.11356	 233.0	 1	 192	 64.8	 0.0	 0.0	 0.0	 0.0	 0.0	 0.0	 0.0	 0.0	 0.0	 0.0	 0.0; % NG
	10281	 39.0	 26.0	 84.0	 -84.0	 1.07868	 20.0	 1	 168	 1.45	 0.0	 0.0	 0.0	 0.0	 0.0	 0.0	 0.0	 0.0	 0.0	 0.0	 0.0; % PEL
	10282	 120.0	 144.0	 144.0	 -144.0	 1.06767	 357.0	 1	 193	 29.15	 0.0	 0.0	 0.0	 0.0	 0.0	 0.0	 0.0	 0.0	 0.0	 0.0	 0.0; % NG
	10284	 471.0	 -22.0	 386.0	 -386.0	 1.12	 919.0	 1	 625	 209.15	 0.0	 0.0	 0.0	 0.0	 0.0	 0.0	 0.0	 0.0	 0.0	 0.0	 0.0; % COW
	10285	 43.0	 -63.0	 75.6	 -75.6	 1.0574	 132.0	 1	 110	 0.0	 0.0	 0.0	 0.0	 0.0	 0.0	 0.0	 0.0	 0.0	 0.0	 0.0	 0.0; % PEL
	10288	 70.0	 30.0	 64.0	 -64.0	 1.03369	 63.0	 1	 127	 10.45	 0.0	 0.0	 0.0	 0.0	 0.0	 0.0	 0.0	 0.0	 0.0	 0.0	 0.0; % NG
	10289	 54.0	 -20.0	 30.0	 -30.0	 1.05256	 41.0	 1	 59	 0.35	 0.0	 0.0	 0.0	 0.0	 0.0	 0.0	 0.0	 0.0	 0.0	 0.0	 0.0; % PEL
	10290	 83.0	 30.0	 168.0	 -168.0	 1.06119	 49.0	 1	 335	 14.05	 0.0	 0.0	 0.0	 0.0	 0.0	 0.0	 0.0	 0.0	 0.0	 0.0	 0.0; % NG
	10291	 85.0	 -7.0	 92.0	 -92.0	 1.08362	 71.0	 1	 184	 2.9	 0.0	 0.0	 0.0	 0.0	 0.0	 0.0	 0.0	 0.0	 0.0	 0.0	 0.0; % COW
	10292	 343.0	 171.0	 239.0	 -239.0	 1.08678	 638.0	 1	 368	 156.25	 0.0	 0.0	 0.0	 0.0	 0.0	 0.0	 0.0	 0.0	 0.0	 0.0	 0.0; % NG
	10293	 72.0	 20.0	 46.0	 -46.0	 1.07356	 46.0	 1	 91	 9.7	 0.0	 0.0	 0.0	 0.0	 0.0	 0.0	 0.0	 0.0	 0.0	 0.0	 0.0; % NG
	10294	 43.0	 13.0	 63.0	 -63.0	 1.08819	 74.0	 1	 126	 3.95	 0.0	 0.0	 0.0	 0.0	 0.0	 0.0	 0.0	 0.0	 0.0	 0.0	 0.0; % NG
	10295	 215.0	 262.0	 314.4	 -314.4	 0.99474	 299.0	 1	 326	 75.95	 0.0	 0.0	 0.0	 0.0	 0.0	 0.0	 0.0	 0.0	 0.0	 0.0	 0.0; % COW
	10296	 248.0	 112.0	 192.0	 -192.0	 1.08634	 461.0	 1	 383	 98.65	 0.0	 0.0	 0.0	 0.0	 0.0	 0.0	 0.0	 0.0	 0.0	 0.0	 0.0; % NG
	24	 180.0	 243.0	 419.0	 -419.0	 1.07767	 235.3	 1	 837	 55.0	 0.0	 0.0	 0.0	 0.0	 0.0	 0.0	 0.0	 0.0	 0.0	 0.0	 0.0; % NG
	25	 189.0	 -51.0	 115.0	 -115.0	 1.0776	 235.3	 1	 230	 67.5	 0.0	 0.0	 0.0	 0.0	 0.0	 0.0	 0.0	 0.0	 0.0	 0.0	 0.0; % NG
	37	 254.0	 113.0	 198.0	 -198.0	 1.11	 426.0	 1	 396	 120.0	 0.0	 0.0	 0.0	 0.0	 0.0	 0.0	 0.0	 0.0	 0.0	 0.0	 0.0; % COW
	37	 254.0	 113.0	 215.0	 -215.0	 1.11	 426.0	 1	 430	 120.0	 0.0	 0.0	 0.0	 0.0	 0.0	 0.0	 0.0	 0.0	 0.0	 0.0	 0.0; % NG
	38	 254.0	 47.0	 185.0	 -155.0	 1.11	 426.0	 1	 309	 120.0	 0.0	 0.0	 0.0	 0.0	 0.0	 0.0	 0.0	 0.0	 0.0	 0.0	 0.0; % NG
	38	 254.0	 47.0	 385.0	 -385.0	 1.11	 426.0	 1	 769	 120.0	 0.0	 0.0	 0.0	 0.0	 0.0	 0.0	 0.0	 0.0	 0.0	 0.0	 0.0; % NG
	39	 254.0	 111.0	 186.0	 -186.0	 1.11	 426.0	 1	 372	 120.0	 0.0	 0.0	 0.0	 0.0	 0.0	 0.0	 0.0	 0.0	 0.0	 0.0	 0.0; % COW
	40	 253.0	 78.0	 255.0	 -255.0	 1.04756	 426.0	 1	 509	 120.0	 0.0	 0.0	 0.0	 0.0	 0.0	 0.0	 0.0	 0.0	 0.0	 0.0	 0.0; % COW
	40	 253.0	 78.0	 185.0	 -158.0	 1.04756	 426.0	 1	 316	 120.0	 0.0	 0.0	 0.0	 0.0	 0.0	 0.0	 0.0	 0.0	 0.0	 0.0	 0.0; % NG
	40	 253.0	 78.0	 185.0	 -184.0	 1.04756	 426.0	 1	 368	 120.0	 0.0	 0.0	 0.0	 0.0	 0.0	 0.0	 0.0	 0.0	 0.0	 0.0	 0.0; % NG
	41	 253.0	 160.0	 254.0	 -254.0	 1.04755	 426.0	 1	 507	 120.0	 0.0	 0.0	 0.0	 0.0	 0.0	 0.0	 0.0	 0.0	 0.0	 0.0	 0.0; % COW
	41	 253.0	 160.0	 185.0	 -192.0	 1.04755	 426.0	 1	 306	 120.0	 0.0	 0.0	 0.0	 0.0	 0.0	 0.0	 0.0	 0.0	 0.0	 0.0	 0.0; % NG
	41	 253.0	 160.0	 282.0	 -282.0	 1.04755	 426.0	 1	 564	 120.0	 0.0	 0.0	 0.0	 0.0	 0.0	 0.0	 0.0	 0.0	 0.0	 0.0	 0.0; % NG
	57	 139.0	 13.0	 108.0	 -81.0	 1.10991	 235.0	 1	 161	 55.0	 0.0	 0.0	 0.0	 0.0	 0.0	 0.0	 0.0	 0.0	 0.0	 0.0	 0.0; % NG
	57	 154.0	 13.0	 110.0	 -79.0	 1.10991	 235.0	 1	 158	 62.5	 0.0	 0.0	 0.0	 0.0	 0.0	 0.0	 0.0	 0.0	 0.0	 0.0	 0.0; % NG
	58	 154.0	 152.0	 313.0	 -313.0	 1.1097	 235.0	 1	 625	 62.5	 0.0	 0.0	 0.0	 0.0	 0.0	 0.0	 0.0	 0.0	 0.0	 0.0	 0.0; % NG
	58	 0.0	 0.0	 113.0	 -33.0	 1.0	 235.0	 0	 62	 60.0	 0.0	 0.0	 0.0	 0.0	 0.0	 0.0	 0.0	 0.0	 0.0	 0.0	 0.0; % NG
	58	 139.0	 152.0	 182.4	 -182.4	 1.1097	 235.0	 1	 225	 55.0	 0.0	 0.0	 0.0	 0.0	 0.0	 0.0	 0.0	 0.0	 0.0	 0.0	 0.0; % NG
	59	 139.0	 286.0	 343.2	 -343.2	 1.11	 235.0	 1	 153	 55.0	 0.0	 0.0	 0.0	 0.0	 0.0	 0.0	 0.0	 0.0	 0.0	 0.0	 0.0; % NG
	60	 435.0	 496.0	 595.2	 -595.2	 1.05	 588.0	 1	 500	 127.5	 0.0	 0.0	 0.0	 0.0	 0.0	 0.0	 0.0	 0.0	 0.0	 0.0	 0.0; % NG
	61	 378.0	 -232.0	 280.0	 -278.4	 1.04992	 588.0	 1	 411	 125.0	 0.0	 0.0	 0.0	 0.0	 0.0	 0.0	 0.0	 0.0	 0.0	 0.0	 0.0; % COW
	70	 162.0	 -82.0	 132.0	 -132.0	 1.10739	 235.0	 1	 264	 64.5	 0.0	 0.0	 0.0	 0.0	 0.0	 0.0	 0.0	 0.0	 0.0	 0.0	 0.0; % NG
	71	 162.0	 11.0	 145.0	 -145.0	 1.10739	 235.0	 1	 289	 64.5	 0.0	 0.0	 0.0	 0.0	 0.0	 0.0	 0.0	 0.0	 0.0	 0.0	 0.0; % NG
	71	 0.0	 0.0	 99.0	 -30.0	 1.0	 235.0	 0	 60	 129.0	 0.0	 0.0	 0.0	 0.0	 0.0	 0.0	 0.0	 0.0	 0.0	 0.0	 0.0; % NG
	72	 0.0	 0.0	 105.0	 -40.0	 1.0	 235.0	 0	 80	 64.5	 0.0	 0.0	 0.0	 0.0	 0.0	 0.0	 0.0	 0.0	 0.0	 0.0	 0.0; % NG
	72	 168.0	 -56.0	 115.0	 -115.0	 1.04287	 235.0	 1	 230	 64.5	 0.0	 0.0	 0.0	 0.0	 0.0	 0.0	 0.0	 0.0	 0.0	 0.0	 0.0; % NG
	73	 166.0	 -164.0	 196.8	 -196.8	 1.0429	 235.0	 1	 172	 64.5	 0.0	 0.0	 0.0	 0.0	 0.0	 0.0	 0.0	 0.0	 0.0	 0.0	 0.0; % NG
	73	 166.0	 -164.0	 196.8	 -196.8	 1.0429	 235.0	 1	 379	 64.5	 0.0	 0.0	 0.0	 0.0	 0.0	 0.0	 0.0	 0.0	 0.0	 0.0	 0.0; % NG
	74	 35.0	 -108.0	 129.6	 -129.6	 1.1043	 120.0	 1	 49	 0.0	 0.0	 0.0	 0.0	 0.0	 0.0	 0.0	 0.0	 0.0	 0.0	 0.0	 0.0; % NG
	94	 150.0	 81.0	 120.0	 -120.0	 1.10247	 270.6	 1	 239	 62.5	 0.0	 0.0	 0.0	 0.0	 0.0	 0.0	 0.0	 0.0	 0.0	 0.0	 0.0; % NG
	94	 165.0	 81.0	 113.0	 -97.2	 1.10247	 270.6	 1	 172	 70.0	 0.0	 0.0	 0.0	 0.0	 0.0	 0.0	 0.0	 0.0	 0.0	 0.0	 0.0; % NG
	95	 153.0	 64.0	 113.0	 -105.0	 1.10442	 270.6	 1	 210	 65.0	 0.0	 0.0	 0.0	 0.0	 0.0	 0.0	 0.0	 0.0	 0.0	 0.0	 0.0; % NG
	95	 148.0	 64.0	 113.0	 -76.8	 1.10442	 270.6	 1	 149	 62.5	 0.0	 0.0	 0.0	 0.0	 0.0	 0.0	 0.0	 0.0	 0.0	 0.0	 0.0; % NG
	95	 153.0	 64.0	 113.0	 -80.0	 1.10442	 270.6	 1	 159	 65.0	 0.0	 0.0	 0.0	 0.0	 0.0	 0.0	 0.0	 0.0	 0.0	 0.0	 0.0; % NG
	98	 238.0	 -6.0	 192.0	 -137.0	 1.05	 426.0	 1	 274	 110.0	 0.0	 0.0	 0.0	 0.0	 0.0	 0.0	 0.0	 0.0	 0.0	 0.0	 0.0; % NG
	98	 238.0	 -6.0	 127.0	 -127.0	 1.05	 435.3	 1	 254	 110.0	 0.0	 0.0	 0.0	 0.0	 0.0	 0.0	 0.0	 0.0	 0.0	 0.0	 0.0; % NG
	115	 23.0	 -66.0	 79.2	 -79.2	 1.09646	 12.0	 1	 51	 0.0	 0.0	 0.0	 0.0	 0.0	 0.0	 0.0	 0.0	 0.0	 0.0	 0.0	 0.0; % NG
	115	 23.0	 -66.0	 79.2	 -79.2	 1.09646	 6.0	 1	 83	 0.0	 0.0	 0.0	 0.0	 0.0	 0.0	 0.0	 0.0	 0.0	 0.0	 0.0	 0.0; % COW
	121	 0.0	 0.0	 113.0	 -82.0	 1.0	 270.6	 0	 163	 60.0	 0.0	 0.0	 0.0	 0.0	 0.0	 0.0	 0.0	 0.0	 0.0	 0.0	 0.0; % NG
	122	 147.0	 33.0	 113.0	 -101.0	 1.10922	 270.6	 1	 202	 60.0	 0.0	 0.0	 0.0	 0.0	 0.0	 0.0	 0.0	 0.0	 0.0	 0.0	 0.0; % NG
	123	 93.0	 -93.0	 111.6	 -111.6	 1.10624	 150.0	 1	 166	 35.0	 0.0	 0.0	 0.0	 0.0	 0.0	 0.0	 0.0	 0.0	 0.0	 0.0	 0.0; % NG
	124	 94.0	 -49.0	 231.0	 -231.0	 1.10639	 150.0	 1	 462	 35.0	 0.0	 0.0	 0.0	 0.0	 0.0	 0.0	 0.0	 0.0	 0.0	 0.0	 0.0; % NG
	134	 0.0	 0.0	 66.0	 -66.0	 1.0	 150.0	 0	 131	 35.0	 0.0	 0.0	 0.0	 0.0	 0.0	 0.0	 0.0	 0.0	 0.0	 0.0	 0.0; % NG
	135	 95.0	 -21.0	 60.0	 -55.0	 1.09923	 150.0	 1	 110	 35.0	 0.0	 0.0	 0.0	 0.0	 0.0	 0.0	 0.0	 0.0	 0.0	 0.0	 0.0; % NG
	136	 106.0	 62.0	 173.0	 -173.0	 1.07793	 117.5	 1	 345	 40.0	 0.0	 0.0	 0.0	 0.0	 0.0	 0.0	 0.0	 0.0	 0.0	 0.0	 0.0; % COW
	144	 157.0	 -16.0	 253.0	 -253.0	 1.10999	 270.6	 1	 506	 67.5	 0.0	 0.0	 0.0	 0.0	 0.0	 0.0	 0.0	 0.0	 0.0	 0.0	 0.0; % NG
	145	 156.0	 24.0	 232.0	 -232.0	 1.11	 270.6	 1	 463	 67.5	 0.0	 0.0	 0.0	 0.0	 0.0	 0.0	 0.0	 0.0	 0.0	 0.0	 0.0; % COW
	145	 156.0	 24.0	 123.0	 -123.0	 1.11	 270.6	 1	 245	 67.5	 0.0	 0.0	 0.0	 0.0	 0.0	 0.0	 0.0	 0.0	 0.0	 0.0	 0.0; % NG
	146	 156.0	 -161.0	 193.2	 -193.2	 1.04293	 270.6	 1	 189	 67.5	 0.0	 0.0	 0.0	 0.0	 0.0	 0.0	 0.0	 0.0	 0.0	 0.0	 0.0; % NG
	146	 156.0	 -161.0	 193.2	 -193.2	 1.04293	 270.6	 1	 189	 67.5	 0.0	 0.0	 0.0	 0.0	 0.0	 0.0	 0.0	 0.0	 0.0	 0.0	 0.0; % NG
	152	 0.0	 0.0	 68.0	 -29.0	 1.0	 150.0	 0	 22	 -135.0	 0.0	 0.0	 0.0	 0.0	 0.0	 0.0	 0.0	 0.0	 0.0	 0.0	 0.0; % NG
	152	 0.0	 0.0	 99.0	 -99.0	 1.0	 150.0	 0	 198	 -135.0	 0.0	 0.0	 0.0	 0.0	 0.0	 0.0	 0.0	 0.0	 0.0	 0.0	 0.0; % NG
	153	 0.0	 0.0	 68.0	 -29.0	 1.0	 150.0	 0	 26	 -135.0	 0.0	 0.0	 0.0	 0.0	 0.0	 0.0	 0.0	 0.0	 0.0	 0.0	 0.0; % NG
	153	 0.0	 0.0	 68.0	 -29.0	 1.0	 150.0	 0	 8	 -135.0	 0.0	 0.0	 0.0	 0.0	 0.0	 0.0	 0.0	 0.0	 0.0	 0.0	 0.0; % NG
	154	 117.0	 179.0	 214.8	 -214.8	 1.0916	 150.0	 1	 238	 47.0	 0.0	 0.0	 0.0	 0.0	 0.0	 0.0	 0.0	 0.0	 0.0	 0.0	 0.0; % NG
	155	 117.0	 86.0	 152.0	 -152.0	 1.0916	 150.0	 1	 304	 47.0	 0.0	 0.0	 0.0	 0.0	 0.0	 0.0	 0.0	 0.0	 0.0	 0.0	 0.0; % COW
	155	 0.0	 0.0	 127.0	 -127.0	 1.0	 150.0	 0	 254	 47.0	 0.0	 0.0	 0.0	 0.0	 0.0	 0.0	 0.0	 0.0	 0.0	 0.0	 0.0; % NG
	169	 0.0	 0.0	 33.0	 -33.0	 1.0	 51.4	 0	 65	 20.0	 0.0	 0.0	 0.0	 0.0	 0.0	 0.0	 0.0	 0.0	 0.0	 0.0	 0.0; % NG
	170	 0.0	 0.0	 71.0	 -71.0	 1.0	 150.0	 0	 141	 40.0	 0.0	 0.0	 0.0	 0.0	 0.0	 0.0	 0.0	 0.0	 0.0	 0.0	 0.0; % NG
	170	 0.0	 0.0	 106.0	 -106.0	 1.0	 51.4	 0	 212	 22.5	 0.0	 0.0	 0.0	 0.0	 0.0	 0.0	 0.0	 0.0	 0.0	 0.0	 0.0; % NG
	172	 136.0	 -26.0	 116.0	 -103.0	 1.06808	 252.4	 1	 205	 50.0	 0.0	 0.0	 0.0	 0.0	 0.0	 0.0	 0.0	 0.0	 0.0	 0.0	 0.0; % NG
	172	 0.0	 0.0	 103.0	 -44.0	 1.0	 237.5	 0	 88	 67.5	 0.0	 0.0	 0.0	 0.0	 0.0	 0.0	 0.0	 0.0	 0.0	 0.0	 0.0; % NG
	173	 0.0	 0.0	 103.0	 -37.0	 1.0	 237.5	 0	 74	 67.5	 0.0	 0.0	 0.0	 0.0	 0.0	 0.0	 0.0	 0.0	 0.0	 0.0	 0.0; % NG
	173	 0.0	 0.0	 102.0	 -50.0	 1.0	 252.4	 0	 100	 45.0	 0.0	 0.0	 0.0	 0.0	 0.0	 0.0	 0.0	 0.0	 0.0	 0.0	 0.0; % NG
	174	 133.0	 23.0	 233.0	 -233.0	 1.03111	 252.4	 1	 466	 45.0	 0.0	 0.0	 0.0	 0.0	 0.0	 0.0	 0.0	 0.0	 0.0	 0.0	 0.0; % COW
	175	 132.0	 43.0	 141.0	 -141.0	 1.03109	 252.4	 1	 282	 45.0	 0.0	 0.0	 0.0	 0.0	 0.0	 0.0	 0.0	 0.0	 0.0	 0.0	 0.0; % NG
	175	 142.0	 43.0	 219.0	 -219.0	 1.03109	 252.4	 1	 438	 50.0	 0.0	 0.0	 0.0	 0.0	 0.0	 0.0	 0.0	 0.0	 0.0	 0.0	 0.0; % NG
	180	 135.0	 69.0	 127.0	 -82.8	 1.11	 287.3	 1	 137	 52.0	 0.0	 0.0	 0.0	 0.0	 0.0	 0.0	 0.0	 0.0	 0.0	 0.0	 0.0; % NG
	180	 135.0	 69.0	 306.0	 -306.0	 1.11	 287.3	 1	 611	 52.0	 0.0	 0.0	 0.0	 0.0	 0.0	 0.0	 0.0	 0.0	 0.0	 0.0	 0.0; % COW
	181	 151.0	 61.0	 219.0	 -219.0	 1.11	 238.4	 1	 437	 60.0	 0.0	 0.0	 0.0	 0.0	 0.0	 0.0	 0.0	 0.0	 0.0	 0.0	 0.0; % NG
	181	 135.0	 61.0	 128.0	 -128.0	 1.11	 287.3	 1	 255	 52.0	 0.0	 0.0	 0.0	 0.0	 0.0	 0.0	 0.0	 0.0	 0.0	 0.0	 0.0; % NG
	182	 124.0	 31.0	 293.0	 -293.0	 1.11	 263.9	 1	 586	 47.0	 0.0	 0.0	 0.0	 0.0	 0.0	 0.0	 0.0	 0.0	 0.0	 0.0	 0.0; % COW
	182	 124.0	 31.0	 118.0	 -67.0	 1.11	 263.9	 1	 134	 47.0	 0.0	 0.0	 0.0	 0.0	 0.0	 0.0	 0.0	 0.0	 0.0	 0.0	 0.0; % COW
	183	 149.0	 56.0	 300.0	 -300.0	 1.04854	 238.4	 1	 600	 60.0	 0.0	 0.0	 0.0	 0.0	 0.0	 0.0	 0.0	 0.0	 0.0	 0.0	 0.0; % COW
	183	 149.0	 56.0	 103.0	 -88.0	 1.04854	 238.4	 1	 175	 60.0	 0.0	 0.0	 0.0	 0.0	 0.0	 0.0	 0.0	 0.0	 0.0	 0.0	 0.0; % NG
	191	 185.0	 426.0	 511.2	 -511.2	 1.08579	 233.2	 1	 443	 75.0	 0.0	 0.0	 0.0	 0.0	 0.0	 0.0	 0.0	 0.0	 0.0	 0.0	 0.0; % NG
	192	 191.0	 392.0	 470.4	 -470.4	 1.08551	 233.2	 1	 193	 75.0	 0.0	 0.0	 0.0	 0.0	 0.0	 0.0	 0.0	 0.0	 0.0	 0.0	 0.0; % NG
	192	 0.0	 0.0	 100.0	 -75.0	 1.0	 233.2	 0	 149	 72.5	 0.0	 0.0	 0.0	 0.0	 0.0	 0.0	 0.0	 0.0	 0.0	 0.0	 0.0; % NG
	192	 0.0	 0.0	 100.0	 -23.0	 1.0	 233.2	 0	 7	 145.0	 0.0	 0.0	 0.0	 0.0	 0.0	 0.0	 0.0	 0.0	 0.0	 0.0	 0.0; % NG
	193	 239.0	 69.0	 232.0	 -232.0	 1.03481	 464.0	 1	 241	 104.0	 0.0	 0.0	 0.0	 0.0	 0.0	 0.0	 0.0	 0.0	 0.0	 0.0	 0.0; % NG
	208	 118.0	 71.0	 102.0	 -102.0	 1.06766	 218.3	 1	 203	 38.0	 0.0	 0.0	 0.0	 0.0	 0.0	 0.0	 0.0	 0.0	 0.0	 0.0	 0.0; % NG
	240	 17.0	 120.0	 144.0	 -144.0	 1.02448	 209.0	 1	 38	 -200.0	 0.0	 0.0	 0.0	 0.0	 0.0	 0.0	 0.0	 0.0	 0.0	 0.0	 0.0; % COW
	240	 17.0	 120.0	 144.0	 -144.0	 1.02448	 209.0	 1	 80	 -200.0	 0.0	 0.0	 0.0	 0.0	 0.0	 0.0	 0.0	 0.0	 0.0	 0.0	 0.0; % NG
	240	 0.0	 0.0	 90.0	 -90.0	 1.0	 209.0	 0	 80	 -200.0	 0.0	 0.0	 0.0	 0.0	 0.0	 0.0	 0.0	 0.0	 0.0	 0.0	 0.0; % NG
	241	 39.0	 41.0	 90.0	 -90.0	 1.02448	 209.0	 1	 48	 -200.0	 0.0	 0.0	 0.0	 0.0	 0.0	 0.0	 0.0	 0.0	 0.0	 0.0	 0.0; % NG
	244	 147.0	 17.0	 157.0	 -157.0	 1.11	 177.1	 1	 313	 56.25	 0.0	 0.0	 0.0	 0.0	 0.0	 0.0	 0.0	 0.0	 0.0	 0.0	 0.0; % NG
	254	 44.0	 26.0	 104.0	 -104.0	 1.09551	 78.8	 1	 207	 11.5	 0.0	 0.0	 0.0	 0.0	 0.0	 0.0	 0.0	 0.0	 0.0	 0.0	 0.0; % NG
	254	 46.0	 26.0	 89.0	 -89.0	 1.09551	 68.8	 1	 178	 12.5	 0.0	 0.0	 0.0	 0.0	 0.0	 0.0	 0.0	 0.0	 0.0	 0.0	 0.0; % COW
	254	 46.0	 26.0	 53.0	 -53.0	 1.09551	 68.8	 1	 106	 12.5	 0.0	 0.0	 0.0	 0.0	 0.0	 0.0	 0.0	 0.0	 0.0	 0.0	 0.0; % NG
	254	 28.0	 26.0	 53.0	 -53.0	 1.09551	 27.6	 1	 105	 3.5	 0.0	 0.0	 0.0	 0.0	 0.0	 0.0	 0.0	 0.0	 0.0	 0.0	 0.0; % NG
	267	 23.0	 -7.0	 19.0	 -19.0	 1.05867	 0.7	 1	 38	 0.25	 0.0	 0.0	 0.0	 0.0	 0.0	 0.0	 0.0	 0.0	 0.0	 0.0	 0.0; % PEL
	268	 38.0	 -8.0	 39.0	 -39.0	 1.07476	 0.7	 1	 78	 0.25	 0.0	 0.0	 0.0	 0.0	 0.0	 0.0	 0.0	 0.0	 0.0	 0.0	 0.0; % NG
	278	 0.0	 0.0	 6.0	 -6.0	 1.0	 10.3	 0	 12	 2.95	 0.0	 0.0	 0.0	 0.0	 0.0	 0.0	 0.0	 0.0	 0.0	 0.0	 0.0; % COW
	279	 0.0	 0.0	 54.0	 -54.0	 1.0	 10.3	 0	 108	 2.95	 0.0	 0.0	 0.0	 0.0	 0.0	 0.0	 0.0	 0.0	 0.0	 0.0	 0.0; % PEL
	295	 2.0	 29.0	 34.8	 -34.8	 1.08251	 5.0	 1	 5	 0.5	 0.0	 0.0	 0.0	 0.0	 0.0	 0.0	 0.0	 0.0	 0.0	 0.0	 0.0; % NG
	295	 2.0	 29.0	 34.8	 -34.8	 1.08251	 5.0	 1	 6	 0.5	 0.0	 0.0	 0.0	 0.0	 0.0	 0.0	 0.0	 0.0	 0.0	 0.0	 0.0; % COW
	295	 2.0	 29.0	 34.8	 -34.8	 1.08251	 5.0	 1	 5	 0.5	 0.0	 0.0	 0.0	 0.0	 0.0	 0.0	 0.0	 0.0	 0.0	 0.0	 0.0; % COW
	295	 2.0	 29.0	 34.8	 -34.8	 1.08251	 5.0	 1	 8	 0.5	 0.0	 0.0	 0.0	 0.0	 0.0	 0.0	 0.0	 0.0	 0.0	 0.0	 0.0; % PEL
	310	 254.0	 47.0	 185.0	 -175.0	 0.99995	 426.0	 1	 350	 120.0	 0.0	 0.0	 0.0	 0.0	 0.0	 0.0	 0.0	 0.0	 0.0	 0.0	 0.0; % COW
	316	 0.0	 0.0	 6.0	 -6.0	 1.0	 4.0	 0	 11	 0.5	 0.0	 0.0	 0.0	 0.0	 0.0	 0.0	 0.0	 0.0	 0.0	 0.0	 0.0; % PEL
	316	 0.0	 0.0	 55.0	 -55.0	 1.0	 4.0	 0	 110	 0.5	 0.0	 0.0	 0.0	 0.0	 0.0	 0.0	 0.0	 0.0	 0.0	 0.0	 0.0; % PEL
	376	 221.0	 -36.0	 151.0	 -151.0	 1.09167	 8.4	 1	 301	 2.7	 0.0	 0.0	 0.0	 0.0	 0.0	 0.0	 0.0	 0.0	 0.0	 0.0	 0.0; % NG
	379	 25.0	 -8.0	 23.0	 -23.0	 1.11164	 0.9	 1	 45	 0.15	 0.0	 0.0	 0.0	 0.0	 0.0	 0.0	 0.0	 0.0	 0.0	 0.0	 0.0; % PEL
	379	 25.0	 -8.0	 48.0	 -48.0	 1.11164	 0.9	 1	 96	 0.15	 0.0	 0.0	 0.0	 0.0	 0.0	 0.0	 0.0	 0.0	 0.0	 0.0	 0.0; % PEL
	379	 25.0	 -8.0	 15.0	 -15.0	 1.11164	 0.9	 1	 30	 0.15	 0.0	 0.0	 0.0	 0.0	 0.0	 0.0	 0.0	 0.0	 0.0	 0.0	 0.0; % NG
	383	 42.0	 -3.0	 45.0	 -45.0	 1.11072	 31.3	 1	 90	 5.5	 0.0	 0.0	 0.0	 0.0	 0.0	 0.0	 0.0	 0.0	 0.0	 0.0	 0.0; % NG
...
];

%% generator cost data
%	2	startup	shutdown	n	c(n-1)	...	c0
mpc.gencost = [
	2	 0.0	 0.0	 3	   0.000000	   1.646398	   0.000000; % NG
	2	 0.0	 0.0	 3	   0.000000	   0.938545	   0.000000; % NG
	2	 0.0	 0.0	 3	   0.000000	   1.629432	   0.000000; % NG
	2	 0.0	 0.0	 3	   0.000000	   0.698684	   0.000000; % COW
	2	 0.0	 0.0	 3	   0.000000	   0.596386	   0.000000; % COW
	2	 0.0	 0.0	 3	   0.000000	   0.609090	   0.000000; % COW
	2	 0.0	 0.0	 3	   0.000000	   1.155473	   0.000000; % COW
	2	 0.0	 0.0	 3	   0.000000	   0.881030	   0.000000; % COW
	2	 0.0	 0.0	 3	   0.000000	   0.630043	   0.000000; % NG
	2	 0.0	 0.0	 3	   0.000000	   1.058381	   0.000000; % NG
	2	 0.0	 0.0	 3	   0.000000	   0.797517	   0.000000; % COW
	2	 0.0	 0.0	 3	   0.000000	   1.291173	   0.000000; % COW
	2	 0.0	 0.0	 3	   0.000000	   0.770287	   0.000000; % COW
	2	 0.0	 0.0	 3	   0.000000	   0.451213	   0.000000; % COW
	2	 0.0	 0.0	 3	   0.000000	   0.802535	   0.000000; % COW
	2	 0.0	 0.0	 3	   0.000000	   0.701802	   0.000000; % COW
	2	 0.0	 0.0	 3	   0.000000	   1.091881	   0.000000; % NG
	2	 0.0	 0.0	 3	   0.000000	   0.894262	   0.000000; % COW
	2	 0.0	 0.0	 3	   0.000000	   1.305939	   0.000000; % NG
	2	 0.0	 0.0	 3	   0.000000	   0.836901	   0.000000; % NG
	2	 0.0	 0.0	 3	   0.000000	   1.082675	   0.000000; % COW
	2	 0.0	 0.0	 3	   0.000000	   0.732004	   0.000000; % NG
	2	 0.0	 0.0	 3	   0.000000	   0.841611	   0.000000; % COW
	2	 0.0	 0.0	 3	   0.000000	   0.865193	   0.000000; % COW
	2	 0.0	 0.0	 3	   0.000000	   0.833920	   0.000000; % COW
	2	 0.0	 0.0	 3	   0.000000	   0.689225	   0.000000; % NG
	2	 0.0	 0.0	 3	   0.000000	   1.027731	   0.000000; % COW
	2	 0.0	 0.0	 3	   0.000000	   0.516979	   0.000000; % COW
	2	 0.0	 0.0	 3	   0.000000	   1.029741	   0.000000; % NG
	2	 0.0	 0.0	 3	   0.000000	   0.832138	   0.000000; % COW
	2	 0.0	 0.0	 3	   0.000000	   0.522927	   0.000000; % COW
	2	 0.0	 0.0	 3	   0.000000	   1.103279	   0.000000; % NG
	2	 0.0	 0.0	 3	   0.000000	   1.147810	   0.000000; % NG
	2	 0.0	 0.0	 3	   0.000000	   0.391438	   0.000000; % COW
	2	 0.0	 0.0	 3	   0.000000	   6.625048	   0.000000; % PEL
	2	 0.0	 0.0	 3	   0.000000	   0.664737	   0.000000; % NG
	2	 0.0	 0.0	 3	   0.000000	   1.244938	   0.000000; % NG
	2	 0.0	 0.0	 3	   0.000000	   6.578325	   0.000000; % PEL
	2	 0.0	 0.0	 3	   0.000000	   6.740513	   0.000000; % PEL
	2	 0.0	 0.0	 3	   0.000000	   0.930386	   0.000000; % NG
	2	 0.0	 0.0	 3	   0.000000	   0.947038	   0.000000; % NG
	2	 0.0	 0.0	 3	   0.000000	   1.045480	   0.000000; % NG
	2	 0.0	 0.0	 3	   0.000000	   0.996205	   0.000000; % NG
	2	 0.0	 0.0	 3	   0.000000	   6.769489	   0.000000; % PEL
	2	 0.0	 0.0	 3	   0.000000	   1.511682	   0.000000; % NG
	2	 0.0	 0.0	 3	   0.000000	   0.888918	   0.000000; % NG
	2	 0.0	 0.0	 3	   0.000000	   7.364026	   0.000000; % PEL
	2	 0.0	 0.0	 3	   0.000000	   1.020364	   0.000000; % NG
	2	 0.0	 0.0	 3	   0.000000	   1.377831	   0.000000; % NG
	2	 0.0	 0.0	 3	   0.000000	   0.930645	   0.000000; % NG
	2	 0.0	 0.0	 3	   0.000000	   0.946493	   0.000000; % NG
	2	 0.0	 0.0	 3	   0.000000	   0.760577	   0.000000; % COW
	2	 0.0	 0.0	 3	   0.000000	   1.008834	   0.000000; % COW
	2	 0.0	 0.0	 3	   0.000000	   0.818973	   0.000000; % COW
	2	 0.0	 0.0	 3	   0.000000	   1.094674	   0.000000; % NG
	2	 0.0	 0.0	 3	   0.000000	   0.605483	   0.000000; % COW
	2	 0.0	 0.0	 3	   0.000000	   0.999769	   0.000000; % NG
	2	 0.0	 0.0	 3	   0.000000	   1.081708	   0.000000; % NG
	2	 0.0	 0.0	 3	   0.000000	   1.291443	   0.000000; % NG
	2	 0.0	 0.0	 3	   0.000000	   0.972499	   0.000000; % NG
	2	 0.0	 0.0	 3	   0.000000	   0.618600	   0.000000; % COW
	2	 0.0	 0.0	 3	   0.000000	   0.662315	   0.000000; % COW
	2	 0.0	 0.0	 3	   0.000000	   0.723530	   0.000000; % COW
	2	 0.0	 0.0	 3	   0.000000	   0.674651	   0.000000; % COW
	2	 0.0	 0.0	 3	   0.000000	   0.766096	   0.000000; % COW
	2	 0.0	 0.0	 3	   0.000000	   0.503151	   0.000000; % COW
	2	 0.0	 0.0	 3	   0.000000	   0.967922	   0.000000; % COW
	2	 0.0	 0.0	 3	   0.000000	   6.793955	   0.000000; % PEL
	2	 0.0	 0.0	 3	   0.000000	   0.982833	   0.000000; % COW
	2	 0.0	 0.0	 3	   0.000000	   6.930463	   0.000000; % PEL
	2	 0.0	 0.0	 3	   0.000000	   1.248632	   0.000000; % NG
	2	 0.0	 0.0	 3	   0.000000	   1.093987	   0.000000; % NG
	2	 0.0	 0.0	 3	   0.000000	   0.551906	   0.000000; % COW
	2	 0.0	 0.0	 3	   0.000000	   1.067529	   0.000000; % NG
	2	 0.0	 0.0	 3	   0.000000	   0.976138	   0.000000; % COW
	2	 0.0	 0.0	 3	   0.000000	   0.781624	   0.000000; % NG
	2	 0.0	 0.0	 3	   0.000000	   7.475149	   0.000000; % PEL
	2	 0.0	 0.0	 3	   0.000000	   0.948416	   0.000000; % COW
	2	 0.0	 0.0	 3	   0.000000	   1.026030	   0.000000; % NG
	2	 0.0	 0.0	 3	   0.000000	   1.258996	   0.000000; % NG
	2	 0.0	 0.0	 3	   0.000000	   1.177202	   0.000000; % NG
	2	 0.0	 0.0	 3	   0.000000	   7.221558	   0.000000; % PEL
	2	 0.0	 0.0	 3	   0.000000	   1.004254	   0.000000; % NG
	2	 0.0	 0.0	 3	   0.000000	   0.420173	   0.000000; % COW
	2	 0.0	 0.0	 3	   0.000000	   6.634401	   0.000000; % PEL
	2	 0.0	 0.0	 3	   0.000000	   1.260460	   0.000000; % NG
	2	 0.0	 0.0	 3	   0.000000	   6.072069	   0.000000; % PEL
	2	 0.0	 0.0	 3	   0.000000	   1.105807	   0.000000; % NG
	2	 0.0	 0.0	 3	   0.000000	   0.444153	   0.000000; % COW
	2	 0.0	 0.0	 3	   0.000000	   1.129663	   0.000000; % NG
	2	 0.0	 0.0	 3	   0.000000	   0.861678	   0.000000; % NG
	2	 0.0	 0.0	 3	   0.000000	   0.811588	   0.000000; % NG
	2	 0.0	 0.0	 3	   0.000000	   0.925213	   0.000000; % COW
	2	 0.0	 0.0	 3	   0.000000	   0.853851	   0.000000; % NG
	2	 0.0	 0.0	 3	   0.000000	   0.938162	   0.000000; % NG
	2	 0.0	 0.0	 3	   0.000000	   0.868507	   0.000000; % NG
	2	 0.0	 0.0	 3	   0.000000	   0.579950	   0.000000; % COW
	2	 0.0	 0.0	 3	   0.000000	   1.121519	   0.000000; % NG
	2	 0.0	 0.0	 3	   0.000000	   1.005821	   0.000000; % NG
	2	 0.0	 0.0	 3	   0.000000	   1.162759	   0.000000; % NG
	2	 0.0	 0.0	 3	   0.000000	   0.517144	   0.000000; % COW
	2	 0.0	 0.0	 3	   0.000000	   0.860565	   0.000000; % COW
	2	 0.0	 0.0	 3	   0.000000	   1.017783	   0.000000; % NG
	2	 0.0	 0.0	 3	   0.000000	   1.231769	   0.000000; % NG
	2	 0.0	 0.0	 3	   0.000000	   0.981984	   0.000000; % COW
	2	 0.0	 0.0	 3	   0.000000	   0.936206	   0.000000; % NG
	2	 0.0	 0.0	 3	   0.000000	   0.907128	   0.000000; % NG
	2	 0.0	 0.0	 3	   0.000000	   0.873935	   0.000000; % NG
	2	 0.0	 0.0	 3	   0.000000	   0.908999	   0.000000; % NG
	2	 0.0	 0.0	 3	   0.000000	   1.043941	   0.000000; % NG
	2	 0.0	 0.0	 3	   0.000000	   1.343283	   0.000000; % NG
	2	 0.0	 0.0	 3	   0.000000	   0.980285	   0.000000; % NG
	2	 0.0	 0.0	 3	   0.000000	   1.463995	   0.000000; % NG
	2	 0.0	 0.0	 3	   0.000000	   1.266729	   0.000000; % NG
	2	 0.0	 0.0	 3	   0.000000	   0.742433	   0.000000; % COW
	2	 0.0	 0.0	 3	   0.000000	   1.330691	   0.000000; % NG
	2	 0.0	 0.0	 3	   0.000000	   0.957342	   0.000000; % NG
	2	 0.0	 0.0	 3	   0.000000	   0.955086	   0.000000; % NG
	2	 0.0	 0.0	 3	   0.000000	   1.093941	   0.000000; % NG
	2	 0.0	 0.0	 3	   0.000000	   0.967855	   0.000000; % NG
	2	 0.0	 0.0	 3	   0.000000	   1.171180	   0.000000; % NG
	2	 0.0	 0.0	 3	   0.000000	   0.952733	   0.000000; % NG
	2	 0.0	 0.0	 3	   0.000000	   1.191799	   0.000000; % NG
	2	 0.0	 0.0	 3	   0.000000	   1.081647	   0.000000; % NG
	2	 0.0	 0.0	 3	   0.000000	   0.695947	   0.000000; % NG
	2	 0.0	 0.0	 3	   0.000000	   1.510569	   0.000000; % NG
	2	 0.0	 0.0	 3	   0.000000	   1.024910	   0.000000; % NG
	2	 0.0	 0.0	 3	   0.000000	   1.067254	   0.000000; % NG
	2	 0.0	 0.0	 3	   0.000000	   0.935034	   0.000000; % NG
	2	 0.0	 0.0	 3	   0.000000	   1.192078	   0.000000; % NG
	2	 0.0	 0.0	 3	   0.000000	   0.985450	   0.000000; % NG
	2	 0.0	 0.0	 3	   0.000000	   0.714068	   0.000000; % COW
	2	 0.0	 0.0	 3	   0.000000	   0.907852	   0.000000; % NG
	2	 0.0	 0.0	 3	   0.000000	   0.806794	   0.000000; % NG
	2	 0.0	 0.0	 3	   0.000000	   0.990569	   0.000000; % NG
	2	 0.0	 0.0	 3	   0.000000	   0.970778	   0.000000; % NG
	2	 0.0	 0.0	 3	   0.000000	   0.821036	   0.000000; % NG
	2	 0.0	 0.0	 3	   0.000000	   0.992349	   0.000000; % NG
	2	 0.0	 0.0	 3	   0.000000	   1.011038	   0.000000; % COW
	2	 0.0	 0.0	 3	   0.000000	   1.310963	   0.000000; % NG
	2	 0.0	 0.0	 3	   0.000000	   0.342468	   0.000000; % COW
	2	 0.0	 0.0	 3	   0.000000	   1.539494	   0.000000; % NG
	2	 0.0	 0.0	 3	   0.000000	   1.123618	   0.000000; % NG
	2	 0.0	 0.0	 3	   0.000000	   1.170709	   0.000000; % NG
	2	 0.0	 0.0	 3	   0.000000	   0.982295	   0.000000; % NG
	2	 0.0	 0.0	 3	   0.000000	   1.216309	   0.000000; % NG
	2	 0.0	 0.0	 3	   0.000000	   1.029701	   0.000000; % NG
	2	 0.0	 0.0	 3	   0.000000	   1.003904	   0.000000; % NG
	2	 0.0	 0.0	 3	   0.000000	   1.375168	   0.000000; % NG
	2	 0.0	 0.0	 3	   0.000000	   0.397405	   0.000000; % COW
	2	 0.0	 0.0	 3	   0.000000	   1.407143	   0.000000; % NG
	2	 0.0	 0.0	 3	   0.000000	   1.011150	   0.000000; % NG
	2	 0.0	 0.0	 3	   0.000000	   1.333446	   0.000000; % NG
	2	 0.0	 0.0	 3	   0.000000	   1.059064	   0.000000; % NG
	2	 0.0	 0.0	 3	   0.000000	   1.079842	   0.000000; % NG
	2	 0.0	 0.0	 3	   0.000000	   0.920472	   0.000000; % NG
	2	 0.0	 0.0	 3	   0.000000	   0.958580	   0.000000; % NG
	2	 0.0	 0.0	 3	   0.000000	   1.183745	   0.000000; % NG
	2	 0.0	 0.0	 3	   0.000000	   0.683056	   0.000000; % COW
	2	 0.0	 0.0	 3	   0.000000	   1.052868	   0.000000; % NG
	2	 0.0	 0.0	 3	   0.000000	   1.026578	   0.000000; % NG
	2	 0.0	 0.0	 3	   0.000000	   1.254547	   0.000000; % NG
	2	 0.0	 0.0	 3	   0.000000	   0.876158	   0.000000; % COW
	2	 0.0	 0.0	 3	   0.000000	   1.465571	   0.000000; % NG
	2	 0.0	 0.0	 3	   0.000000	   1.207965	   0.000000; % NG
	2	 0.0	 0.0	 3	   0.000000	   0.948567	   0.000000; % COW
	2	 0.0	 0.0	 3	   0.000000	   0.599316	   0.000000; % COW
	2	 0.0	 0.0	 3	   0.000000	   0.619097	   0.000000; % COW
	2	 0.0	 0.0	 3	   0.000000	   1.162462	   0.000000; % NG
	2	 0.0	 0.0	 3	   0.000000	   1.171276	   0.000000; % NG
	2	 0.0	 0.0	 3	   0.000000	   1.311605	   0.000000; % NG
	2	 0.0	 0.0	 3	   0.000000	   1.302081	   0.000000; % NG
	2	 0.0	 0.0	 3	   0.000000	   1.035430	   0.000000; % NG
	2	 0.0	 0.0	 3	   0.000000	   1.111128	   0.000000; % NG
	2	 0.0	 0.0	 3	   0.000000	   1.141753	   0.000000; % NG
	2	 0.0	 0.0	 3	   0.000000	   0.573320	   0.000000; % COW
	2	 0.0	 0.0	 3	   0.000000	   0.779815	   0.000000; % NG
	2	 0.0	 0.0	 3	   0.000000	   0.977710	   0.000000; % NG
	2	 0.0	 0.0	 3	   0.000000	   0.894487	   0.000000; % NG
	2	 0.0	 0.0	 3	   0.000000	   0.747443	   0.000000; % NG
	2	 0.0	 0.0	 3	   0.000000	   1.308425	   0.000000; % NG
	2	 0.0	 0.0	 3	   0.000000	   0.593845	   0.000000; % COW
	2	 0.0	 0.0	 3	   0.000000	   1.345911	   0.000000; % NG
	2	 0.0	 0.0	 3	   0.000000	   0.838941	   0.000000; % NG
	2	 0.0	 0.0	 3	   0.000000	   7.046511	   0.000000; % PEL
	2	 0.0	 0.0	 3	   0.000000	   0.991474	   0.000000; % NG
	2	 0.0	 0.0	 3	   0.000000	   0.935032	   0.000000; % COW
	2	 0.0	 0.0	 3	   0.000000	   6.773319	   0.000000; % PEL
	2	 0.0	 0.0	 3	   0.000000	   1.123542	   0.000000; % NG
	2	 0.0	 0.0	 3	   0.000000	   0.563111	   0.000000; % COW
	2	 0.0	 0.0	 3	   0.000000	   0.942932	   0.000000; % COW
	2	 0.0	 0.0	 3	   0.000000	   6.828150	   0.000000; % PEL
	2	 0.0	 0.0	 3	   0.000000	   0.908432	   0.000000; % COW
	2	 0.0	 0.0	 3	   0.000000	   6.958231	   0.000000; % PEL
	2	 0.0	 0.0	 3	   0.000000	   6.693492	   0.000000; % PEL
	2	 0.0	 0.0	 3	   0.000000	   1.096443	   0.000000; % NG
	2	 0.0	 0.0	 3	   0.000000	   7.355532	   0.000000; % PEL
	2	 0.0	 0.0	 3	   0.000000	   7.054787	   0.000000; % PEL
	2	 0.0	 0.0	 3	   0.000000	   1.433564	   0.000000; % NG
	2	 0.0	 0.0	 3	   0.000000	   1.063953	   0.000000; % NG
...
];

%% branch data
%	fbus	tbus	r	x	b	rateA	rateB	rateC	ratio	angle	status	angmin	angmax
mpc.branch = [
	10330	 10331	 1e-05	 8e-05	 0.0	 182.0	 182.0	 182.0	 0.0	 0.0	 1	 -30.0	 30.0;
	10300	 10355	 0.05932	 0.20245	 0.0	 121.0	 121.0	 121.0	 0.0	 0.0	 1	 -30.0	 30.0;
	10300	 10360	 0.02058	 0.05185	 0.0	 105.0	 105.0	 105.0	 0.0	 0.0	 1	 -30.0	 30.0;
	10367	 10201	 2e-05	 -0.04958	 0.0	 658.0	 200.0	 200.0	 0.999	 0.0	 1	 -30.0	 30.0;
	10367	 10202	 6e-05	 0.08346	 0.0	 390.0	 200.0	 200.0	 0.99999	 0.0	 1	 -30.0	 30.0;
	10366	 10367	 0.0026	 0.25917	 0.0	 126.0	 126.0	 126.0	 0.99999	 0.0	 1	 -30.0	 30.0;
	10368	 10215	 2e-05	 -0.04961	 0.0	 658.0	 200.0	 200.0	 0.999	 0.0	 1	 -30.0	 30.0;
	10368	 10216	 6e-05	 0.08373	 0.0	 389.0	 200.0	 200.0	 0.99999	 0.0	 1	 -30.0	 30.0;
	10369	 10368	 0.0026	 0.26125	 0.0	 125.0	 125.0	 125.0	 0.99999	 0.0	 1	 -30.0	 30.0;
	10090	 10083	 8e-05	 0.00079	 0.41456	 735.0	 735.0	 735.0	 0.0	 0.0	 1	 -30.0	 30.0;
	10138	 10164	 0.00168	 0.01733	 0.75504	 751.0	 751.0	 751.0	 0.0	 0.0	 1	 -30.0	 30.0;
	10139	 10109	 0.00071	 0.00594	 0.27872	 679.0	 679.0	 679.0	 0.0	 0.0	 1	 -30.0	 30.0;
	10139	 10144	 0.00075	 0.00681	 0.312	 706.0	 706.0	 706.0	 0.0	 0.0	 1	 -30.0	 30.0;
	10139	 10153	 0.00194	 0.02	 0.8336	 750.0	 750.0	 750.0	 0.0	 0.0	 1	 -30.0	 30.0;
	10140	 10110	 0.00071	 0.00594	 0.27872	 679.0	 679.0	 679.0	 0.0	 0.0	 1	 -30.0	 30.0;
	10140	 10143	 0.00075	 0.00681	 0.312	 706.0	 706.0	 706.0	 0.0	 0.0	 1	 -30.0	 30.0;
	10140	 10153	 0.00194	 0.02	 0.8336	 750.0	 750.0	 750.0	 0.0	 0.0	 1	 -30.0	 30.0;
	10141	 10153	 0.00233	 0.01696	 0.70784	 636.0	 636.0	 636.0	 0.0	 0.0	 1	 -30.0	 30.0;
	10090	 10085	 0.00017	 0.00148	 1.23008	 692.0	 692.0	 692.0	 0.0	 0.0	 1	 -30.0	 30.0;
	10141	 10158	 0.00204	 0.01707	 0.71344	 679.0	 679.0	 679.0	 0.0	 0.0	 1	 -30.0	 30.0;
	10141	 10158	 0.00204	 0.01707	 0.71344	 679.0	 679.0	 679.0	 0.0	 0.0	 1	 -30.0	 30.0;
	10143	 10144	 1e-05	 6e-05	 0.0	 580.0	 580.0	 580.0	 0.0	 0.0	 1	 -30.0	 30.0;
	10143	 10153	 0.00169	 0.01381	 0.6496	 672.0	 672.0	 672.0	 0.0	 0.0	 1	 -30.0	 30.0;
	10143	 10156	 0.00119	 0.00969	 0.4544	 671.0	 671.0	 671.0	 0.0	 0.0	 1	 -30.0	 30.0;
	10144	 10126	 0.00306	 0.02537	 1.19168	 676.0	 676.0	 676.0	 0.0	 0.0	 1	 -30.0	 30.0;
	10144	 10153	 0.00169	 0.01381	 0.6496	 672.0	 672.0	 672.0	 0.0	 0.0	 1	 -30.0	 30.0;
	10144	 10165	 0.00244	 0.02044	 0.9584	 680.0	 680.0	 680.0	 0.0	 0.0	 1	 -30.0	 30.0;
	10091	 10090	 9e-05	 0.00106	 1.10432	 800.0	 800.0	 800.0	 0.0	 0.0	 1	 -30.0	 30.0;
	10145	 10147	 0.00194	 0.01606	 0.75456	 676.0	 676.0	 676.0	 0.0	 0.0	 1	 -30.0	 30.0;
	10145	 10158	 0.00189	 0.01232	 0.61088	 603.0	 603.0	 603.0	 0.0	 0.0	 1	 -30.0	 30.0;
	10171	 10094	 0.0	 6e-05	 0.0	 99999.0	 1593.0	 1593.0	 0.0	 0.0	 1	 -30.0	 30.0;
	10145	 10082	 0.00091	 0.00923	 0.39197	 745.0	 745.0	 745.0	 0.0	 0.0	 1	 -30.0	 30.0;
	10145	 10082	 0.00091	 0.00923	 0.39197	 745.0	 745.0	 745.0	 0.0	 0.0	 1	 -30.0	 30.0;
	10146	 10154	 0.00503	 0.01845	 0.05812	 252.0	 252.0	 252.0	 0.0	 0.0	 1	 -30.0	 30.0;
	10172	 10095	 0.0	 6e-05	 0.0	 99999.0	 1386.0	 1386.0	 0.0	 0.0	 1	 -30.0	 30.0;
	10147	 10153	 0.00156	 0.01288	 0.6032	 675.0	 675.0	 675.0	 0.0	 0.0	 1	 -30.0	 30.0;
	10173	 10095	 0.0	 6e-05	 0.0	 99999.0	 1386.0	 1386.0	 0.0	 0.0	 1	 -30.0	 30.0;
	10147	 10153	 0.00156	 0.01288	 0.6032	 675.0	 675.0	 675.0	 0.0	 0.0	 1	 -30.0	 30.0;
	10174	 10096	 2e-05	 0.00016	 0.0008	 665.0	 665.0	 665.0	 0.0	 0.0	 1	 -30.0	 30.0;
	10147	 10161	 0.00113	 0.00962	 0.4528	 685.0	 685.0	 685.0	 0.0	 0.0	 1	 -30.0	 30.0;
...